/*---------------------------------------------------------------------------*\
  =========                 |
  \\      /  F ield         | OpenFOAM: The Open Source CFD Toolbox
   \\    /   O peration     | Website:  https://openfoam.org
    \\  /    A nd           | Version:  6
     \\/     M anipulation  |
\*---------------------------------------------------------------------------*/
Build  : 6-1a0c91b3baa8
Exec   : blockMesh
Date   : Sep 24 2018
Time   : 13:45:09
Host   : "ib22b11"
PID    : 183
I/O    : uncollated
Case   : /scratch/dev10/georgeg/shareRep/georgeg/myOpenFoam_run6_1537796763668SGASg/pitzDaily
nProcs : 1
sigFpe : Enabling floating point exception trapping (FOAM_SIGFPE).
fileModificationChecking : Monitoring run-time modified files using timeStampMaster (fileModificationSkew 10)
allowSystemOperations : Allowing user-supplied system call operations

// * * * * * * * * * * * * * * * * * * * * * * * * * * * * * * * * * * * * * //
Create time

Creating block mesh from
    "/scratch/dev10/georgeg/shareRep/georgeg/myOpenFoam_run6_1537796763668SGASg/pitzDaily/system/blockMeshDict"
Creating block edges
No non-planar block faces defined
Creating topology blocks
Creating topology patches

Creating block mesh topology

Check topology

	Basic statistics
		Number of internal faces : 5
		Number of boundary faces : 20
		Number of defined boundary faces : 20
		Number of undefined boundary faces : 0
	Checking patch -> block consistency

Creating block offsets
Creating merge list .

Creating polyMesh from blockMesh
Creating patches
Creating cells
Creating points with scale 0.001
    Block 0 cell size :
        i : 0.00158284 .. 0.000791418
        j : 0.000318841 .. 0.000420268
        k : 0.001 .. 0.001

    Block 1 cell size :
        i : 0.000528387 .. 0.00211355
        j : 0.00112889 .. 0.000360188
        k : 0.001 .. 0.001

    Block 2 cell size :
        i : 0.000528387 .. 0.00211355
        j : 0.000318841 .. 0.000420268
        k : 0.001 .. 0.001

    Block 3 cell size :
        i : 0.0020578 .. 0.00514451
        j : 0.000940741 .. 0.000940741
        k : 0.001 .. 0.001

    Block 4 cell size :
        i : 0.0020466 .. 0.00511651
        j : 0.00112889 .. 0.000257962
        k : 0.001 .. 0.001


There are no merge patch pairs edges

Writing polyMesh
----------------
Mesh Information
----------------
  boundingBox: (-0.0206 -0.0254 -0.0005) (0.29 0.0254 0.0005)
  nPoints: 25012
  nCells: 12225
  nFaces: 49180
  nInternalFaces: 24170
----------------
Patches
----------------
  patch 0 (start: 24170 size: 30) name: inlet
  patch 1 (start: 24200 size: 57) name: outlet
  patch 2 (start: 24257 size: 223) name: upperWall
  patch 3 (start: 24480 size: 250) name: lowerWall
  patch 4 (start: 24730 size: 24450) name: frontAndBack

End

/*---------------------------------------------------------------------------*\
  =========                 |
  \\      /  F ield         | OpenFOAM: The Open Source CFD Toolbox
   \\    /   O peration     | Website:  https://openfoam.org
    \\  /    A nd           | Version:  6
     \\/     M anipulation  |
\*---------------------------------------------------------------------------*/
Build  : 6-1a0c91b3baa8
Exec   : simpleFoam
Date   : Sep 24 2018
Time   : 13:45:09
Host   : "ib22b11"
PID    : 185
I/O    : uncollated
Case   : /scratch/dev10/georgeg/shareRep/georgeg/myOpenFoam_run6_1537796763668SGASg/pitzDaily
nProcs : 1
sigFpe : Enabling floating point exception trapping (FOAM_SIGFPE).
fileModificationChecking : Monitoring run-time modified files using timeStampMaster (fileModificationSkew 10)
allowSystemOperations : Allowing user-supplied system call operations

// * * * * * * * * * * * * * * * * * * * * * * * * * * * * * * * * * * * * * //
Create time

Create mesh for time = 0


SIMPLE: Convergence criteria found
        p: tolerance 0.01
        U: tolerance 0.001
        "(k|epsilon|omega|f|v2)": tolerance 0.001

Reading field p

Reading field U

Reading/calculating face flux field phi

Selecting incompressible transport model Newtonian
Selecting turbulence model type RAS
Selecting RAS turbulence model kEpsilon
RAS
{
    RASModel        kEpsilon;
    turbulence      on;
    printCoeffs     on;
    Cmu             0.09;
    C1              1.44;
    C2              1.92;
    C3              0;
    sigmak          1;
    sigmaEps        1.3;
}

No MRF models present

No finite volume options present

Starting time loop

streamLine streamlines:
    automatic track length specified through number of sub cycles : 5

Time = 1

smoothSolver:  Solving for Ux, Initial residual = 1, Final residual = 0.0538101, No Iterations 1
smoothSolver:  Solving for Uy, Initial residual = 1, Final residual = 0.030925, No Iterations 2
GAMG:  Solving for p, Initial residual = 1, Final residual = 0.068427, No Iterations 17
time step continuity errors : sum local = 1.19733, global = 0.179883, cumulative = 0.179883
smoothSolver:  Solving for epsilon, Initial residual = 0.23288, Final residual = 0.0114612, No Iterations 3
bounding epsilon, min: -1.98669 max: 1033.28 average: 35.8884
smoothSolver:  Solving for k, Initial residual = 1, Final residual = 0.0454552, No Iterations 3
ExecutionTime = 0.26 s  ClockTime = 0 s

Time = 2

smoothSolver:  Solving for Ux, Initial residual = 0.438346, Final residual = 0.0305667, No Iterations 5
smoothSolver:  Solving for Uy, Initial residual = 0.290564, Final residual = 0.0257883, No Iterations 4
GAMG:  Solving for p, Initial residual = 0.0522496, Final residual = 0.00435174, No Iterations 15
time step continuity errors : sum local = 3.97186, global = 0.123248, cumulative = 0.303131
smoothSolver:  Solving for epsilon, Initial residual = 0.176548, Final residual = 0.010301, No Iterations 3
bounding epsilon, min: -10.4236 max: 23808.9 average: 70.8793
smoothSolver:  Solving for k, Initial residual = 0.436479, Final residual = 0.0394786, No Iterations 3
ExecutionTime = 0.31 s  ClockTime = 0 s

Time = 3

smoothSolver:  Solving for Ux, Initial residual = 0.1242, Final residual = 0.0111197, No Iterations 4
smoothSolver:  Solving for Uy, Initial residual = 0.216892, Final residual = 0.0156466, No Iterations 4
GAMG:  Solving for p, Initial residual = 0.14275, Final residual = 0.0119489, No Iterations 6
time step continuity errors : sum local = 3.34307, global = 0.328383, cumulative = 0.631514
smoothSolver:  Solving for epsilon, Initial residual = 0.175551, Final residual = 0.00809994, No Iterations 2
bounding epsilon, min: -898.39 max: 45796.5 average: 117.634
smoothSolver:  Solving for k, Initial residual = 0.191738, Final residual = 0.0156143, No Iterations 3
ExecutionTime = 0.35 s  ClockTime = 0 s

Time = 4

smoothSolver:  Solving for Ux, Initial residual = 0.0677471, Final residual = 0.00434826, No Iterations 5
smoothSolver:  Solving for Uy, Initial residual = 0.10749, Final residual = 0.00821448, No Iterations 4
GAMG:  Solving for p, Initial residual = 0.1061, Final residual = 0.0105576, No Iterations 6
time step continuity errors : sum local = 1.74649, global = 0.177143, cumulative = 0.808657
smoothSolver:  Solving for epsilon, Initial residual = 0.0706245, Final residual = 0.00578441, No Iterations 2
bounding epsilon, min: -172.106 max: 53276.8 average: 128.968
smoothSolver:  Solving for k, Initial residual = 0.124758, Final residual = 0.0111285, No Iterations 3
ExecutionTime = 0.39 s  ClockTime = 0 s

Time = 5

smoothSolver:  Solving for Ux, Initial residual = 0.0568147, Final residual = 0.00396887, No Iterations 5
smoothSolver:  Solving for Uy, Initial residual = 0.0866067, Final residual = 0.00827391, No Iterations 4
GAMG:  Solving for p, Initial residual = 0.104689, Final residual = 0.00807946, No Iterations 4
time step continuity errors : sum local = 1.02737, global = 0.0926034, cumulative = 0.90126
smoothSolver:  Solving for epsilon, Initial residual = 0.0924311, Final residual = 0.00558155, No Iterations 2
smoothSolver:  Solving for k, Initial residual = 0.0862603, Final residual = 0.00509212, No Iterations 4
ExecutionTime = 0.42 s  ClockTime = 1 s

Time = 6

smoothSolver:  Solving for Ux, Initial residual = 0.0518443, Final residual = 0.0038966, No Iterations 5
smoothSolver:  Solving for Uy, Initial residual = 0.072437, Final residual = 0.00491558, No Iterations 5
GAMG:  Solving for p, Initial residual = 0.0867032, Final residual = 0.00650266, No Iterations 4
time step continuity errors : sum local = 0.769078, global = -0.0579733, cumulative = 0.843287
smoothSolver:  Solving for epsilon, Initial residual = 0.0532318, Final residual = 0.0030113, No Iterations 3
smoothSolver:  Solving for k, Initial residual = 0.068907, Final residual = 0.00474785, No Iterations 4
ExecutionTime = 0.46 s  ClockTime = 1 s

Time = 7

smoothSolver:  Solving for Ux, Initial residual = 0.0479743, Final residual = 0.0038598, No Iterations 5
smoothSolver:  Solving for Uy, Initial residual = 0.0632908, Final residual = 0.00456234, No Iterations 5
GAMG:  Solving for p, Initial residual = 0.0715323, Final residual = 0.0045885, No Iterations 4
time step continuity errors : sum local = 0.540677, global = -0.0673473, cumulative = 0.77594
smoothSolver:  Solving for epsilon, Initial residual = 0.0478442, Final residual = 0.00273446, No Iterations 3
smoothSolver:  Solving for k, Initial residual = 0.0581603, Final residual = 0.00422263, No Iterations 4
ExecutionTime = 0.49 s  ClockTime = 1 s

Time = 8

smoothSolver:  Solving for Ux, Initial residual = 0.0441941, Final residual = 0.00377893, No Iterations 5
smoothSolver:  Solving for Uy, Initial residual = 0.0584274, Final residual = 0.00434069, No Iterations 5
GAMG:  Solving for p, Initial residual = 0.0622691, Final residual = 0.00510351, No Iterations 3
time step continuity errors : sum local = 0.605536, global = 0.0149036, cumulative = 0.790843
smoothSolver:  Solving for epsilon, Initial residual = 0.0408377, Final residual = 0.00275532, No Iterations 3
smoothSolver:  Solving for k, Initial residual = 0.0515683, Final residual = 0.00388887, No Iterations 4
ExecutionTime = 0.53 s  ClockTime = 1 s

Time = 9

smoothSolver:  Solving for Ux, Initial residual = 0.0408709, Final residual = 0.00364297, No Iterations 5
smoothSolver:  Solving for Uy, Initial residual = 0.0551718, Final residual = 0.00421331, No Iterations 5
GAMG:  Solving for p, Initial residual = 0.0568794, Final residual = 0.0047445, No Iterations 3
time step continuity errors : sum local = 0.568955, global = 0.00270241, cumulative = 0.793546
smoothSolver:  Solving for epsilon, Initial residual = 0.0421798, Final residual = 0.0028828, No Iterations 3
smoothSolver:  Solving for k, Initial residual = 0.0481629, Final residual = 0.0037254, No Iterations 4
ExecutionTime = 0.56 s  ClockTime = 1 s

Time = 10

smoothSolver:  Solving for Ux, Initial residual = 0.0385466, Final residual = 0.00351513, No Iterations 5
smoothSolver:  Solving for Uy, Initial residual = 0.0512163, Final residual = 0.0040312, No Iterations 5
GAMG:  Solving for p, Initial residual = 0.0511174, Final residual = 0.00393571, No Iterations 3
time step continuity errors : sum local = 0.483561, global = 0.0136147, cumulative = 0.80716
smoothSolver:  Solving for epsilon, Initial residual = 0.0406448, Final residual = 0.00294772, No Iterations 3
smoothSolver:  Solving for k, Initial residual = 0.0451185, Final residual = 0.00352041, No Iterations 4
ExecutionTime = 0.6 s  ClockTime = 1 s

Time = 11

smoothSolver:  Solving for Ux, Initial residual = 0.0364146, Final residual = 0.00337306, No Iterations 5
smoothSolver:  Solving for Uy, Initial residual = 0.0483305, Final residual = 0.00390661, No Iterations 5
GAMG:  Solving for p, Initial residual = 0.0496514, Final residual = 0.00343158, No Iterations 3
time step continuity errors : sum local = 0.44653, global = 0.0102888, cumulative = 0.817449
smoothSolver:  Solving for epsilon, Initial residual = 0.0396254, Final residual = 0.00300314, No Iterations 3
smoothSolver:  Solving for k, Initial residual = 0.0426102, Final residual = 0.00333603, No Iterations 4
ExecutionTime = 0.64 s  ClockTime = 1 s

Time = 12

smoothSolver:  Solving for Ux, Initial residual = 0.0341638, Final residual = 0.00321402, No Iterations 5
smoothSolver:  Solving for Uy, Initial residual = 0.0465855, Final residual = 0.0038157, No Iterations 5
GAMG:  Solving for p, Initial residual = 0.0479284, Final residual = 0.00340423, No Iterations 3
time step continuity errors : sum local = 0.399795, global = 0.00652487, cumulative = 0.823974
smoothSolver:  Solving for epsilon, Initial residual = 0.0372579, Final residual = 0.00294185, No Iterations 3
smoothSolver:  Solving for k, Initial residual = 0.0408053, Final residual = 0.00321773, No Iterations 4
ExecutionTime = 0.67 s  ClockTime = 1 s

Time = 13

smoothSolver:  Solving for Ux, Initial residual = 0.0322631, Final residual = 0.00304331, No Iterations 5
smoothSolver:  Solving for Uy, Initial residual = 0.0448919, Final residual = 0.00371972, No Iterations 5
GAMG:  Solving for p, Initial residual = 0.0493949, Final residual = 0.00320706, No Iterations 3
time step continuity errors : sum local = 0.383463, global = 0.00577622, cumulative = 0.82975
smoothSolver:  Solving for epsilon, Initial residual = 0.0358384, Final residual = 0.00292063, No Iterations 3
smoothSolver:  Solving for k, Initial residual = 0.0387717, Final residual = 0.00304643, No Iterations 4
ExecutionTime = 0.71 s  ClockTime = 1 s

Time = 14

smoothSolver:  Solving for Ux, Initial residual = 0.030687, Final residual = 0.00288193, No Iterations 5
smoothSolver:  Solving for Uy, Initial residual = 0.0435789, Final residual = 0.00363664, No Iterations 5
GAMG:  Solving for p, Initial residual = 0.0504268, Final residual = 0.00308454, No Iterations 3
time step continuity errors : sum local = 0.37501, global = 0.00323363, cumulative = 0.832984
smoothSolver:  Solving for epsilon, Initial residual = 0.0346848, Final residual = 0.00288311, No Iterations 3
smoothSolver:  Solving for k, Initial residual = 0.0368131, Final residual = 0.00288394, No Iterations 4
ExecutionTime = 0.74 s  ClockTime = 1 s

Time = 15

smoothSolver:  Solving for Ux, Initial residual = 0.028998, Final residual = 0.00272814, No Iterations 5
smoothSolver:  Solving for Uy, Initial residual = 0.04279, Final residual = 0.00355895, No Iterations 5
GAMG:  Solving for p, Initial residual = 0.0482378, Final residual = 0.00318353, No Iterations 3
time step continuity errors : sum local = 0.357247, global = 0.000275628, cumulative = 0.83326
smoothSolver:  Solving for epsilon, Initial residual = 0.0327387, Final residual = 0.00277821, No Iterations 3
smoothSolver:  Solving for k, Initial residual = 0.0349612, Final residual = 0.00273778, No Iterations 4
ExecutionTime = 0.77 s  ClockTime = 1 s

Time = 16

smoothSolver:  Solving for Ux, Initial residual = 0.0272033, Final residual = 0.00258229, No Iterations 5
smoothSolver:  Solving for Uy, Initial residual = 0.0415042, Final residual = 0.00348834, No Iterations 5
GAMG:  Solving for p, Initial residual = 0.0458207, Final residual = 0.00319177, No Iterations 3
time step continuity errors : sum local = 0.345735, global = -0.000350978, cumulative = 0.832909
smoothSolver:  Solving for epsilon, Initial residual = 0.0299029, Final residual = 0.00267962, No Iterations 3
smoothSolver:  Solving for k, Initial residual = 0.0334209, Final residual = 0.00261509, No Iterations 4
ExecutionTime = 0.81 s  ClockTime = 1 s

Time = 17

smoothSolver:  Solving for Ux, Initial residual = 0.0255472, Final residual = 0.00244651, No Iterations 5
smoothSolver:  Solving for Uy, Initial residual = 0.0400476, Final residual = 0.00342807, No Iterations 5
GAMG:  Solving for p, Initial residual = 0.043129, Final residual = 0.0032737, No Iterations 3
time step continuity errors : sum local = 0.345206, global = -0.00241461, cumulative = 0.830494
smoothSolver:  Solving for epsilon, Initial residual = 0.0277871, Final residual = 0.0025317, No Iterations 3
smoothSolver:  Solving for k, Initial residual = 0.0318155, Final residual = 0.00248196, No Iterations 4
ExecutionTime = 0.84 s  ClockTime = 1 s

Time = 18

smoothSolver:  Solving for Ux, Initial residual = 0.0241139, Final residual = 0.00231704, No Iterations 5
smoothSolver:  Solving for Uy, Initial residual = 0.038602, Final residual = 0.00336666, No Iterations 5
GAMG:  Solving for p, Initial residual = 0.0409011, Final residual = 0.00341473, No Iterations 3
time step continuity errors : sum local = 0.344458, global = -0.00461727, cumulative = 0.825877
smoothSolver:  Solving for epsilon, Initial residual = 0.0258516, Final residual = 0.00239125, No Iterations 3
smoothSolver:  Solving for k, Initial residual = 0.0300964, Final residual = 0.00233641, No Iterations 4
ExecutionTime = 0.88 s  ClockTime = 1 s

Time = 19

smoothSolver:  Solving for Ux, Initial residual = 0.0228265, Final residual = 0.00219297, No Iterations 5
smoothSolver:  Solving for Uy, Initial residual = 0.0370724, Final residual = 0.00330216, No Iterations 5
GAMG:  Solving for p, Initial residual = 0.0394323, Final residual = 0.00341666, No Iterations 3
time step continuity errors : sum local = 0.338777, global = -0.00548394, cumulative = 0.820393
smoothSolver:  Solving for epsilon, Initial residual = 0.0243679, Final residual = 0.0022624, No Iterations 3
smoothSolver:  Solving for k, Initial residual = 0.0286813, Final residual = 0.0022249, No Iterations 4
ExecutionTime = 0.92 s  ClockTime = 1 s

Time = 20

smoothSolver:  Solving for Ux, Initial residual = 0.0216061, Final residual = 0.00207259, No Iterations 5
smoothSolver:  Solving for Uy, Initial residual = 0.0358327, Final residual = 0.00324083, No Iterations 5
GAMG:  Solving for p, Initial residual = 0.0375889, Final residual = 0.00345718, No Iterations 3
time step continuity errors : sum local = 0.3291, global = -0.00644747, cumulative = 0.813945
smoothSolver:  Solving for epsilon, Initial residual = 0.02284, Final residual = 0.00211158, No Iterations 3
smoothSolver:  Solving for k, Initial residual = 0.0271237, Final residual = 0.00209556, No Iterations 4
ExecutionTime = 0.95 s  ClockTime = 1 s

Time = 21

smoothSolver:  Solving for Ux, Initial residual = 0.0203924, Final residual = 0.00195672, No Iterations 5
smoothSolver:  Solving for Uy, Initial residual = 0.0348116, Final residual = 0.00318567, No Iterations 5
GAMG:  Solving for p, Initial residual = 0.0361442, Final residual = 0.00341289, No Iterations 3
time step continuity errors : sum local = 0.315417, global = -0.00795302, cumulative = 0.805992
smoothSolver:  Solving for epsilon, Initial residual = 0.0217929, Final residual = 0.00201043, No Iterations 3
smoothSolver:  Solving for k, Initial residual = 0.0260339, Final residual = 0.0020052, No Iterations 4
ExecutionTime = 0.98 s  ClockTime = 1 s

Time = 22

smoothSolver:  Solving for Ux, Initial residual = 0.0192145, Final residual = 0.00184694, No Iterations 5
smoothSolver:  Solving for Uy, Initial residual = 0.0338145, Final residual = 0.00312912, No Iterations 5
GAMG:  Solving for p, Initial residual = 0.0346666, Final residual = 0.0033282, No Iterations 3
time step continuity errors : sum local = 0.299372, global = -0.00863525, cumulative = 0.797357
smoothSolver:  Solving for epsilon, Initial residual = 0.0205558, Final residual = 0.00188065, No Iterations 3
smoothSolver:  Solving for k, Initial residual = 0.025091, Final residual = 0.00192518, No Iterations 4
ExecutionTime = 1.02 s  ClockTime = 1 s

Time = 23

smoothSolver:  Solving for Ux, Initial residual = 0.0181107, Final residual = 0.00174189, No Iterations 5
smoothSolver:  Solving for Uy, Initial residual = 0.0328179, Final residual = 0.00307115, No Iterations 5
GAMG:  Solving for p, Initial residual = 0.0336537, Final residual = 0.00328742, No Iterations 3
time step continuity errors : sum local = 0.287812, global = -0.0103916, cumulative = 0.786965
smoothSolver:  Solving for epsilon, Initial residual = 0.0194852, Final residual = 0.00178123, No Iterations 3
smoothSolver:  Solving for k, Initial residual = 0.0239509, Final residual = 0.00183129, No Iterations 4
ExecutionTime = 1.05 s  ClockTime = 1 s

Time = 24

smoothSolver:  Solving for Ux, Initial residual = 0.0170858, Final residual = 0.00164247, No Iterations 5
smoothSolver:  Solving for Uy, Initial residual = 0.0316562, Final residual = 0.00301121, No Iterations 5
GAMG:  Solving for p, Initial residual = 0.0314124, Final residual = 0.00223958, No Iterations 4
time step continuity errors : sum local = 0.188661, global = 0.0278192, cumulative = 0.814785
smoothSolver:  Solving for epsilon, Initial residual = 0.018547, Final residual = 0.00167389, No Iterations 3
smoothSolver:  Solving for k, Initial residual = 0.0230769, Final residual = 0.00175766, No Iterations 4
ExecutionTime = 1.09 s  ClockTime = 1 s

Time = 25

smoothSolver:  Solving for Ux, Initial residual = 0.0160997, Final residual = 0.00154201, No Iterations 5
smoothSolver:  Solving for Uy, Initial residual = 0.0308181, Final residual = 0.00294772, No Iterations 5
GAMG:  Solving for p, Initial residual = 0.031401, Final residual = 0.00279307, No Iterations 3
time step continuity errors : sum local = 0.229896, global = -0.0115716, cumulative = 0.803213
smoothSolver:  Solving for epsilon, Initial residual = 0.0176642, Final residual = 0.00157039, No Iterations 3
smoothSolver:  Solving for k, Initial residual = 0.0222644, Final residual = 0.00169501, No Iterations 4
ExecutionTime = 1.12 s  ClockTime = 1 s

Time = 26

smoothSolver:  Solving for Ux, Initial residual = 0.0152132, Final residual = 0.00146055, No Iterations 5
smoothSolver:  Solving for Uy, Initial residual = 0.0298816, Final residual = 0.00288063, No Iterations 5
GAMG:  Solving for p, Initial residual = 0.0311161, Final residual = 0.00207435, No Iterations 4
time step continuity errors : sum local = 0.168232, global = 0.0259812, cumulative = 0.829194
smoothSolver:  Solving for epsilon, Initial residual = 0.0168136, Final residual = 0.00148904, No Iterations 3
smoothSolver:  Solving for k, Initial residual = 0.0214731, Final residual = 0.00162018, No Iterations 4
ExecutionTime = 1.15 s  ClockTime = 1 s

Time = 27

smoothSolver:  Solving for Ux, Initial residual = 0.0143018, Final residual = 0.00136816, No Iterations 5
smoothSolver:  Solving for Uy, Initial residual = 0.0290481, Final residual = 0.00280463, No Iterations 5
GAMG:  Solving for p, Initial residual = 0.029408, Final residual = 0.00206356, No Iterations 4
time step continuity errors : sum local = 0.160983, global = 0.0261686, cumulative = 0.855363
smoothSolver:  Solving for epsilon, Initial residual = 0.0160785, Final residual = 0.00141709, No Iterations 3
smoothSolver:  Solving for k, Initial residual = 0.0207939, Final residual = 0.00156414, No Iterations 4
ExecutionTime = 1.19 s  ClockTime = 1 s

Time = 28

smoothSolver:  Solving for Ux, Initial residual = 0.0134332, Final residual = 0.00128899, No Iterations 5
smoothSolver:  Solving for Uy, Initial residual = 0.0280504, Final residual = 0.00273823, No Iterations 5
GAMG:  Solving for p, Initial residual = 0.0282843, Final residual = 0.00224864, No Iterations 4
time step continuity errors : sum local = 0.171295, global = 0.0281711, cumulative = 0.883534
smoothSolver:  Solving for epsilon, Initial residual = 0.015344, Final residual = 0.00135023, No Iterations 3
smoothSolver:  Solving for k, Initial residual = 0.0200707, Final residual = 0.00149968, No Iterations 4
ExecutionTime = 1.23 s  ClockTime = 1 s

Time = 29

smoothSolver:  Solving for Ux, Initial residual = 0.0126491, Final residual = 0.00121197, No Iterations 5
smoothSolver:  Solving for Uy, Initial residual = 0.027328, Final residual = 0.0026621, No Iterations 5
GAMG:  Solving for p, Initial residual = 0.0304772, Final residual = 0.00234165, No Iterations 4
time step continuity errors : sum local = 0.175348, global = 0.0294145, cumulative = 0.912948
smoothSolver:  Solving for epsilon, Initial residual = 0.0147045, Final residual = 0.00129154, No Iterations 3
smoothSolver:  Solving for k, Initial residual = 0.0194173, Final residual = 0.00144685, No Iterations 4
ExecutionTime = 1.27 s  ClockTime = 1 s

Time = 30

smoothSolver:  Solving for Ux, Initial residual = 0.0118572, Final residual = 0.00113801, No Iterations 5
smoothSolver:  Solving for Uy, Initial residual = 0.0265035, Final residual = 0.002592, No Iterations 5
GAMG:  Solving for p, Initial residual = 0.0292627, Final residual = 0.00234019, No Iterations 4
time step continuity errors : sum local = 0.170811, global = 0.0292432, cumulative = 0.942192
smoothSolver:  Solving for epsilon, Initial residual = 0.0140096, Final residual = 0.00123393, No Iterations 3
smoothSolver:  Solving for k, Initial residual = 0.0187212, Final residual = 0.00139057, No Iterations 4
ExecutionTime = 1.3 s  ClockTime = 1 s

Time = 31

smoothSolver:  Solving for Ux, Initial residual = 0.0111125, Final residual = 0.00106898, No Iterations 5
smoothSolver:  Solving for Uy, Initial residual = 0.0255834, Final residual = 0.00252396, No Iterations 5
GAMG:  Solving for p, Initial residual = 0.0295348, Final residual = 0.00237295, No Iterations 4
time step continuity errors : sum local = 0.168487, global = 0.0303958, cumulative = 0.972588
smoothSolver:  Solving for epsilon, Initial residual = 0.0133849, Final residual = 0.00117587, No Iterations 3
smoothSolver:  Solving for k, Initial residual = 0.0180458, Final residual = 0.00133992, No Iterations 4
ExecutionTime = 1.34 s  ClockTime = 1 s

Time = 32

smoothSolver:  Solving for Ux, Initial residual = 0.0104324, Final residual = 0.00100458, No Iterations 5
smoothSolver:  Solving for Uy, Initial residual = 0.0248724, Final residual = 0.00245655, No Iterations 5
GAMG:  Solving for p, Initial residual = 0.0303713, Final residual = 0.00232355, No Iterations 4
time step continuity errors : sum local = 0.161234, global = 0.0294747, cumulative = 1.00206
smoothSolver:  Solving for epsilon, Initial residual = 0.0128177, Final residual = 0.00113052, No Iterations 3
smoothSolver:  Solving for k, Initial residual = 0.0174674, Final residual = 0.00128888, No Iterations 4
ExecutionTime = 1.37 s  ClockTime = 1 s

Time = 33

smoothSolver:  Solving for Ux, Initial residual = 0.00976996, Final residual = 0.000943074, No Iterations 5
smoothSolver:  Solving for Uy, Initial residual = 0.0241046, Final residual = 0.00239157, No Iterations 5
GAMG:  Solving for p, Initial residual = 0.0291612, Final residual = 0.00225094, No Iterations 4
time step continuity errors : sum local = 0.152687, global = 0.0281373, cumulative = 1.0302
smoothSolver:  Solving for epsilon, Initial residual = 0.0123248, Final residual = 0.0010884, No Iterations 3
smoothSolver:  Solving for k, Initial residual = 0.0169214, Final residual = 0.00125095, No Iterations 4
ExecutionTime = 1.41 s  ClockTime = 2 s

Time = 34

smoothSolver:  Solving for Ux, Initial residual = 0.00915236, Final residual = 0.000886457, No Iterations 5
smoothSolver:  Solving for Uy, Initial residual = 0.0234514, Final residual = 0.00233364, No Iterations 5
GAMG:  Solving for p, Initial residual = 0.0282693, Final residual = 0.00203609, No Iterations 4
time step continuity errors : sum local = 0.134738, global = 0.0229301, cumulative = 1.05313
smoothSolver:  Solving for epsilon, Initial residual = 0.0118539, Final residual = 0.00104507, No Iterations 3
smoothSolver:  Solving for k, Initial residual = 0.0164381, Final residual = 0.00120961, No Iterations 4
ExecutionTime = 1.44 s  ClockTime = 2 s

Time = 35

smoothSolver:  Solving for Ux, Initial residual = 0.00860316, Final residual = 0.000835678, No Iterations 5
smoothSolver:  Solving for Uy, Initial residual = 0.0227456, Final residual = 0.00147024, No Iterations 6
GAMG:  Solving for p, Initial residual = 0.0279167, Final residual = 0.0021278, No Iterations 4
time step continuity errors : sum local = 0.138636, global = 0.0250819, cumulative = 1.07821
smoothSolver:  Solving for epsilon, Initial residual = 0.0113373, Final residual = 0.00100063, No Iterations 3
smoothSolver:  Solving for k, Initial residual = 0.0158799, Final residual = 0.00116699, No Iterations 4
ExecutionTime = 1.48 s  ClockTime = 2 s

Time = 36

smoothSolver:  Solving for Ux, Initial residual = 0.00810103, Final residual = 0.000791127, No Iterations 5
smoothSolver:  Solving for Uy, Initial residual = 0.0217902, Final residual = 0.00141979, No Iterations 6
GAMG:  Solving for p, Initial residual = 0.0262842, Final residual = 0.00192916, No Iterations 4
time step continuity errors : sum local = 0.122586, global = 0.0200226, cumulative = 1.09823
smoothSolver:  Solving for epsilon, Initial residual = 0.0109204, Final residual = 0.000974051, No Iterations 3
smoothSolver:  Solving for k, Initial residual = 0.0154363, Final residual = 0.00113862, No Iterations 4
ExecutionTime = 1.52 s  ClockTime = 2 s

Time = 37

smoothSolver:  Solving for Ux, Initial residual = 0.00764055, Final residual = 0.000748369, No Iterations 5
smoothSolver:  Solving for Uy, Initial residual = 0.0212077, Final residual = 0.00138926, No Iterations 6
GAMG:  Solving for p, Initial residual = 0.027089, Final residual = 0.00201531, No Iterations 4
time step continuity errors : sum local = 0.124922, global = 0.0218365, cumulative = 1.12007
smoothSolver:  Solving for epsilon, Initial residual = 0.0106004, Final residual = 0.000939731, No Iterations 3
smoothSolver:  Solving for k, Initial residual = 0.0148974, Final residual = 0.00109151, No Iterations 4
ExecutionTime = 1.56 s  ClockTime = 2 s

Time = 38

smoothSolver:  Solving for Ux, Initial residual = 0.00720013, Final residual = 0.000706812, No Iterations 5
smoothSolver:  Solving for Uy, Initial residual = 0.0206304, Final residual = 0.00136489, No Iterations 6
GAMG:  Solving for p, Initial residual = 0.0282276, Final residual = 0.00258123, No Iterations 3
time step continuity errors : sum local = 0.158492, global = -0.0264889, cumulative = 1.09358
smoothSolver:  Solving for epsilon, Initial residual = 0.0102168, Final residual = 0.000905417, No Iterations 3
smoothSolver:  Solving for k, Initial residual = 0.014383, Final residual = 0.00105541, No Iterations 4
ExecutionTime = 1.59 s  ClockTime = 2 s

Time = 39

smoothSolver:  Solving for Ux, Initial residual = 0.00682334, Final residual = 0.00067312, No Iterations 5
smoothSolver:  Solving for Uy, Initial residual = 0.0202374, Final residual = 0.00134227, No Iterations 6
GAMG:  Solving for p, Initial residual = 0.0268228, Final residual = 0.00250326, No Iterations 3
time step continuity errors : sum local = 0.148811, global = 0.0134157, cumulative = 1.107
smoothSolver:  Solving for epsilon, Initial residual = 0.00979951, Final residual = 0.000880967, No Iterations 3
smoothSolver:  Solving for k, Initial residual = 0.0139138, Final residual = 0.00101806, No Iterations 4
ExecutionTime = 1.63 s  ClockTime = 2 s

Time = 40

smoothSolver:  Solving for Ux, Initial residual = 0.00642981, Final residual = 0.000637017, No Iterations 5
smoothSolver:  Solving for Uy, Initial residual = 0.01984, Final residual = 0.00132905, No Iterations 6
GAMG:  Solving for p, Initial residual = 0.0253503, Final residual = 0.00242002, No Iterations 3
time step continuity errors : sum local = 0.140973, global = -0.012639, cumulative = 1.09436
smoothSolver:  Solving for epsilon, Initial residual = 0.00944739, Final residual = 0.000843153, No Iterations 3
smoothSolver:  Solving for k, Initial residual = 0.0134827, Final residual = 0.000981951, No Iterations 4
ExecutionTime = 1.66 s  ClockTime = 2 s

Time = 41

smoothSolver:  Solving for Ux, Initial residual = 0.00611172, Final residual = 0.000607239, No Iterations 5
smoothSolver:  Solving for Uy, Initial residual = 0.0195778, Final residual = 0.00131887, No Iterations 6
GAMG:  Solving for p, Initial residual = 0.0272247, Final residual = 0.00200291, No Iterations 3
time step continuity errors : sum local = 0.115662, global = 0.0113192, cumulative = 1.10568
smoothSolver:  Solving for epsilon, Initial residual = 0.0090978, Final residual = 0.000807792, No Iterations 3
smoothSolver:  Solving for k, Initial residual = 0.0129871, Final residual = 0.000948164, No Iterations 4
ExecutionTime = 1.69 s  ClockTime = 2 s

Time = 42

smoothSolver:  Solving for Ux, Initial residual = 0.00582479, Final residual = 0.000582092, No Iterations 5
smoothSolver:  Solving for Uy, Initial residual = 0.0192569, Final residual = 0.00130606, No Iterations 6
GAMG:  Solving for p, Initial residual = 0.024983, Final residual = 0.00216445, No Iterations 3
time step continuity errors : sum local = 0.122435, global = -0.000987316, cumulative = 1.10469
smoothSolver:  Solving for epsilon, Initial residual = 0.00871174, Final residual = 0.000774588, No Iterations 3
smoothSolver:  Solving for k, Initial residual = 0.0125413, Final residual = 0.000910141, No Iterations 4
ExecutionTime = 1.73 s  ClockTime = 2 s

Time = 43

smoothSolver:  Solving for Ux, Initial residual = 0.00555443, Final residual = 0.000356969, No Iterations 6
smoothSolver:  Solving for Uy, Initial residual = 0.0189928, Final residual = 0.00129759, No Iterations 6
GAMG:  Solving for p, Initial residual = 0.0256045, Final residual = 0.00216167, No Iterations 3
time step continuity errors : sum local = 0.120047, global = 0.00823466, cumulative = 1.11292
smoothSolver:  Solving for epsilon, Initial residual = 0.00847633, Final residual = 0.000746141, No Iterations 3
smoothSolver:  Solving for k, Initial residual = 0.0120968, Final residual = 0.000876536, No Iterations 4
ExecutionTime = 1.76 s  ClockTime = 2 s

Time = 44

smoothSolver:  Solving for Ux, Initial residual = 0.00530477, Final residual = 0.000341088, No Iterations 6
smoothSolver:  Solving for Uy, Initial residual = 0.0189205, Final residual = 0.00130429, No Iterations 6
GAMG:  Solving for p, Initial residual = 0.0269903, Final residual = 0.00197175, No Iterations 3
time step continuity errors : sum local = 0.109265, global = 0.00546929, cumulative = 1.11839
smoothSolver:  Solving for epsilon, Initial residual = 0.00815983, Final residual = 0.000714114, No Iterations 3
smoothSolver:  Solving for k, Initial residual = 0.0116959, Final residual = 0.000845911, No Iterations 4
ExecutionTime = 1.81 s  ClockTime = 2 s

Time = 45

smoothSolver:  Solving for Ux, Initial residual = 0.00508758, Final residual = 0.000329103, No Iterations 6
smoothSolver:  Solving for Uy, Initial residual = 0.0189337, Final residual = 0.00130504, No Iterations 6
GAMG:  Solving for p, Initial residual = 0.0243085, Final residual = 0.00207798, No Iterations 3
time step continuity errors : sum local = 0.112198, global = 0.0104998, cumulative = 1.12889
smoothSolver:  Solving for epsilon, Initial residual = 0.00781321, Final residual = 0.000688275, No Iterations 3
smoothSolver:  Solving for k, Initial residual = 0.0112925, Final residual = 0.000814944, No Iterations 4
ExecutionTime = 1.84 s  ClockTime = 2 s

Time = 46

smoothSolver:  Solving for Ux, Initial residual = 0.00488925, Final residual = 0.000317905, No Iterations 6
smoothSolver:  Solving for Uy, Initial residual = 0.0187732, Final residual = 0.0013072, No Iterations 6
GAMG:  Solving for p, Initial residual = 0.0239009, Final residual = 0.00187372, No Iterations 3
time step continuity errors : sum local = 0.099823, global = 0.0143698, cumulative = 1.14326
smoothSolver:  Solving for epsilon, Initial residual = 0.00760999, Final residual = 0.000655846, No Iterations 3
smoothSolver:  Solving for k, Initial residual = 0.0109042, Final residual = 0.000785303, No Iterations 4
ExecutionTime = 1.88 s  ClockTime = 2 s

Time = 47

smoothSolver:  Solving for Ux, Initial residual = 0.00473646, Final residual = 0.000308238, No Iterations 6
smoothSolver:  Solving for Uy, Initial residual = 0.0186832, Final residual = 0.00130885, No Iterations 6
GAMG:  Solving for p, Initial residual = 0.0258468, Final residual = 0.00184962, No Iterations 3
time step continuity errors : sum local = 0.0987273, global = 0.0167833, cumulative = 1.16005
smoothSolver:  Solving for epsilon, Initial residual = 0.00741247, Final residual = 0.000626406, No Iterations 3
smoothSolver:  Solving for k, Initial residual = 0.0105247, Final residual = 0.000762864, No Iterations 4
ExecutionTime = 1.91 s  ClockTime = 2 s

Time = 48

smoothSolver:  Solving for Ux, Initial residual = 0.00461566, Final residual = 0.000301525, No Iterations 6
smoothSolver:  Solving for Uy, Initial residual = 0.0187015, Final residual = 0.00130667, No Iterations 6
GAMG:  Solving for p, Initial residual = 0.0227717, Final residual = 0.00191632, No Iterations 3
time step continuity errors : sum local = 0.0997303, global = 0.0171668, cumulative = 1.17721
smoothSolver:  Solving for epsilon, Initial residual = 0.00711813, Final residual = 0.000602421, No Iterations 3
smoothSolver:  Solving for k, Initial residual = 0.0101106, Final residual = 0.000724022, No Iterations 4
ExecutionTime = 1.95 s  ClockTime = 2 s

Time = 49

smoothSolver:  Solving for Ux, Initial residual = 0.00448819, Final residual = 0.000294632, No Iterations 6
smoothSolver:  Solving for Uy, Initial residual = 0.0186113, Final residual = 0.00131095, No Iterations 6
GAMG:  Solving for p, Initial residual = 0.0226594, Final residual = 0.00182035, No Iterations 3
time step continuity errors : sum local = 0.0939278, global = 0.0163659, cumulative = 1.19358
smoothSolver:  Solving for epsilon, Initial residual = 0.00692917, Final residual = 0.000577244, No Iterations 3
smoothSolver:  Solving for k, Initial residual = 0.00978103, Final residual = 0.000696025, No Iterations 4
ExecutionTime = 1.98 s  ClockTime = 2 s

Time = 50

smoothSolver:  Solving for Ux, Initial residual = 0.00439609, Final residual = 0.000289025, No Iterations 6
smoothSolver:  Solving for Uy, Initial residual = 0.0185701, Final residual = 0.00131556, No Iterations 6
GAMG:  Solving for p, Initial residual = 0.0242938, Final residual = 0.00170319, No Iterations 3
time step continuity errors : sum local = 0.0882768, global = 0.0153615, cumulative = 1.20894
smoothSolver:  Solving for epsilon, Initial residual = 0.0067158, Final residual = 0.000551367, No Iterations 3
smoothSolver:  Solving for k, Initial residual = 0.00948984, Final residual = 0.000679322, No Iterations 4
ExecutionTime = 2.02 s  ClockTime = 2 s

Time = 51

smoothSolver:  Solving for Ux, Initial residual = 0.00433458, Final residual = 0.000285514, No Iterations 6
smoothSolver:  Solving for Uy, Initial residual = 0.0186688, Final residual = 0.00131769, No Iterations 6
GAMG:  Solving for p, Initial residual = 0.0219426, Final residual = 0.00170091, No Iterations 3
time step continuity errors : sum local = 0.0862999, global = 0.015119, cumulative = 1.22406
smoothSolver:  Solving for epsilon, Initial residual = 0.00649357, Final residual = 0.000530072, No Iterations 3
smoothSolver:  Solving for k, Initial residual = 0.00916634, Final residual = 0.000656473, No Iterations 4
ExecutionTime = 2.05 s  ClockTime = 2 s

Time = 52

smoothSolver:  Solving for Ux, Initial residual = 0.00425914, Final residual = 0.00028156, No Iterations 6
smoothSolver:  Solving for Uy, Initial residual = 0.0186428, Final residual = 0.00132346, No Iterations 6
GAMG:  Solving for p, Initial residual = 0.021853, Final residual = 0.00161326, No Iterations 3
time step continuity errors : sum local = 0.0814855, global = 0.0136649, cumulative = 1.23773
smoothSolver:  Solving for epsilon, Initial residual = 0.00632567, Final residual = 0.00050768, No Iterations 3
smoothSolver:  Solving for k, Initial residual = 0.00886429, Final residual = 0.000635624, No Iterations 4
ExecutionTime = 2.08 s  ClockTime = 2 s

Time = 53

smoothSolver:  Solving for Ux, Initial residual = 0.00420449, Final residual = 0.000278048, No Iterations 6
smoothSolver:  Solving for Uy, Initial residual = 0.0186269, Final residual = 0.00132934, No Iterations 6
GAMG:  Solving for p, Initial residual = 0.0224717, Final residual = 0.00159289, No Iterations 3
time step continuity errors : sum local = 0.0808961, global = 0.0150967, cumulative = 1.25282
smoothSolver:  Solving for epsilon, Initial residual = 0.00621427, Final residual = 0.000493717, No Iterations 3
smoothSolver:  Solving for k, Initial residual = 0.00859188, Final residual = 0.000612437, No Iterations 4
ExecutionTime = 2.12 s  ClockTime = 2 s

Time = 54

smoothSolver:  Solving for Ux, Initial residual = 0.00417154, Final residual = 0.000275713, No Iterations 6
smoothSolver:  Solving for Uy, Initial residual = 0.0187129, Final residual = 0.00133158, No Iterations 6
GAMG:  Solving for p, Initial residual = 0.0213643, Final residual = 0.00144827, No Iterations 3
time step continuity errors : sum local = 0.0722352, global = 0.0133293, cumulative = 1.26615
smoothSolver:  Solving for epsilon, Initial residual = 0.0060278, Final residual = 0.000474599, No Iterations 3
smoothSolver:  Solving for k, Initial residual = 0.00832732, Final residual = 0.000593457, No Iterations 4
ExecutionTime = 2.15 s  ClockTime = 2 s

Time = 55

smoothSolver:  Solving for Ux, Initial residual = 0.00411727, Final residual = 0.000272747, No Iterations 6
smoothSolver:  Solving for Uy, Initial residual = 0.0186947, Final residual = 0.00133739, No Iterations 6
GAMG:  Solving for p, Initial residual = 0.0209818, Final residual = 0.00167963, No Iterations 3
time step continuity errors : sum local = 0.0836749, global = 0.0174049, cumulative = 1.28356
smoothSolver:  Solving for epsilon, Initial residual = 0.00585194, Final residual = 0.000455601, No Iterations 3
smoothSolver:  Solving for k, Initial residual = 0.00810909, Final residual = 0.000579304, No Iterations 4
ExecutionTime = 2.19 s  ClockTime = 2 s

Time = 56

smoothSolver:  Solving for Ux, Initial residual = 0.00407559, Final residual = 0.00027039, No Iterations 6
smoothSolver:  Solving for Uy, Initial residual = 0.0186652, Final residual = 0.00134171, No Iterations 6
GAMG:  Solving for p, Initial residual = 0.0205673, Final residual = 0.00169516, No Iterations 3
time step continuity errors : sum local = 0.0841557, global = 0.00773813, cumulative = 1.29129
smoothSolver:  Solving for epsilon, Initial residual = 0.0058169, Final residual = 0.000444927, No Iterations 3
smoothSolver:  Solving for k, Initial residual = 0.00784794, Final residual = 0.000558218, No Iterations 4
ExecutionTime = 2.23 s  ClockTime = 2 s

Time = 57

smoothSolver:  Solving for Ux, Initial residual = 0.0040645, Final residual = 0.000267801, No Iterations 6
smoothSolver:  Solving for Uy, Initial residual = 0.0188179, Final residual = 0.00134881, No Iterations 6
GAMG:  Solving for p, Initial residual = 0.0250094, Final residual = 0.00145117, No Iterations 3
time step continuity errors : sum local = 0.0724114, global = 0.0188536, cumulative = 1.31015
smoothSolver:  Solving for epsilon, Initial residual = 0.00568615, Final residual = 0.000428018, No Iterations 3
smoothSolver:  Solving for k, Initial residual = 0.00759099, Final residual = 0.000536969, No Iterations 4
ExecutionTime = 2.27 s  ClockTime = 2 s

Time = 58

smoothSolver:  Solving for Ux, Initial residual = 0.00403619, Final residual = 0.000266766, No Iterations 6
smoothSolver:  Solving for Uy, Initial residual = 0.0188478, Final residual = 0.0013483, No Iterations 6
GAMG:  Solving for p, Initial residual = 0.0219793, Final residual = 0.00174898, No Iterations 3
time step continuity errors : sum local = 0.0857757, global = -0.0113674, cumulative = 1.29878
smoothSolver:  Solving for epsilon, Initial residual = 0.0055131, Final residual = 0.000419319, No Iterations 3
smoothSolver:  Solving for k, Initial residual = 0.0073881, Final residual = 0.000523626, No Iterations 4
ExecutionTime = 2.3 s  ClockTime = 2 s

Time = 59

smoothSolver:  Solving for Ux, Initial residual = 0.00399139, Final residual = 0.000263935, No Iterations 6
smoothSolver:  Solving for Uy, Initial residual = 0.0188157, Final residual = 0.00135549, No Iterations 6
GAMG:  Solving for p, Initial residual = 0.0213246, Final residual = 0.00177436, No Iterations 3
time step continuity errors : sum local = 0.085955, global = 0.014863, cumulative = 1.31364
smoothSolver:  Solving for epsilon, Initial residual = 0.00543438, Final residual = 0.000409736, No Iterations 3
smoothSolver:  Solving for k, Initial residual = 0.00719557, Final residual = 0.00051053, No Iterations 4
ExecutionTime = 2.33 s  ClockTime = 2 s

Time = 60

smoothSolver:  Solving for Ux, Initial residual = 0.00396261, Final residual = 0.000262268, No Iterations 6
smoothSolver:  Solving for Uy, Initial residual = 0.0188564, Final residual = 0.00135915, No Iterations 6
GAMG:  Solving for p, Initial residual = 0.0217028, Final residual = 0.00183707, No Iterations 3
time step continuity errors : sum local = 0.0882795, global = -0.00401555, cumulative = 1.30963
smoothSolver:  Solving for epsilon, Initial residual = 0.00534402, Final residual = 0.00039959, No Iterations 3
smoothSolver:  Solving for k, Initial residual = 0.00703196, Final residual = 0.000498299, No Iterations 4
ExecutionTime = 2.37 s  ClockTime = 2 s

Time = 61

smoothSolver:  Solving for Ux, Initial residual = 0.00392758, Final residual = 0.000259223, No Iterations 6
smoothSolver:  Solving for Uy, Initial residual = 0.0190675, Final residual = 0.0013725, No Iterations 6
GAMG:  Solving for p, Initial residual = 0.0215237, Final residual = 0.00151111, No Iterations 3
time step continuity errors : sum local = 0.0731241, global = 0.014588, cumulative = 1.32422
smoothSolver:  Solving for epsilon, Initial residual = 0.00527171, Final residual = 0.000394564, No Iterations 3
smoothSolver:  Solving for k, Initial residual = 0.00684765, Final residual = 0.000489258, No Iterations 4
ExecutionTime = 2.4 s  ClockTime = 2 s

Time = 62

smoothSolver:  Solving for Ux, Initial residual = 0.00390467, Final residual = 0.000258717, No Iterations 6
smoothSolver:  Solving for Uy, Initial residual = 0.0190117, Final residual = 0.0013757, No Iterations 6
GAMG:  Solving for p, Initial residual = 0.0194943, Final residual = 0.00108143, No Iterations 4
time step continuity errors : sum local = 0.0519151, global = -0.00425206, cumulative = 1.31996
smoothSolver:  Solving for epsilon, Initial residual = 0.00513441, Final residual = 0.000386543, No Iterations 3
smoothSolver:  Solving for k, Initial residual = 0.0066446, Final residual = 0.000473103, No Iterations 4
ExecutionTime = 2.44 s  ClockTime = 3 s

Time = 63

smoothSolver:  Solving for Ux, Initial residual = 0.00386929, Final residual = 0.000255733, No Iterations 6
smoothSolver:  Solving for Uy, Initial residual = 0.0190699, Final residual = 0.00138938, No Iterations 6
GAMG:  Solving for p, Initial residual = 0.0198792, Final residual = 0.00148847, No Iterations 3
time step continuity errors : sum local = 0.0703802, global = 0.0130248, cumulative = 1.33299
smoothSolver:  Solving for epsilon, Initial residual = 0.00506719, Final residual = 0.000381256, No Iterations 3
smoothSolver:  Solving for k, Initial residual = 0.00652868, Final residual = 0.000467383, No Iterations 4
ExecutionTime = 2.47 s  ClockTime = 3 s

Time = 64

smoothSolver:  Solving for Ux, Initial residual = 0.00385482, Final residual = 0.000255435, No Iterations 6
smoothSolver:  Solving for Uy, Initial residual = 0.0190377, Final residual = 0.00139195, No Iterations 6
GAMG:  Solving for p, Initial residual = 0.0200074, Final residual = 0.00175403, No Iterations 3
time step continuity errors : sum local = 0.0831705, global = -0.0127169, cumulative = 1.32027
smoothSolver:  Solving for epsilon, Initial residual = 0.00497981, Final residual = 0.000377067, No Iterations 3
smoothSolver:  Solving for k, Initial residual = 0.00640783, Final residual = 0.000461995, No Iterations 4
ExecutionTime = 2.51 s  ClockTime = 3 s

Time = 65

smoothSolver:  Solving for Ux, Initial residual = 0.00383774, Final residual = 0.000253138, No Iterations 6
smoothSolver:  Solving for Uy, Initial residual = 0.01916, Final residual = 0.0014018, No Iterations 6
GAMG:  Solving for p, Initial residual = 0.0195437, Final residual = 0.00178242, No Iterations 3
time step continuity errors : sum local = 0.0840223, global = 0.0138538, cumulative = 1.33413
smoothSolver:  Solving for epsilon, Initial residual = 0.00491858, Final residual = 0.000374326, No Iterations 3
smoothSolver:  Solving for k, Initial residual = 0.00624438, Final residual = 0.000450634, No Iterations 4
ExecutionTime = 2.54 s  ClockTime = 3 s

Time = 66

smoothSolver:  Solving for Ux, Initial residual = 0.00381635, Final residual = 0.000252276, No Iterations 6
smoothSolver:  Solving for Uy, Initial residual = 0.0192456, Final residual = 0.00141156, No Iterations 6
GAMG:  Solving for p, Initial residual = 0.0200117, Final residual = 0.00188748, No Iterations 3
time step continuity errors : sum local = 0.08846, global = -0.0120705, cumulative = 1.32206
smoothSolver:  Solving for epsilon, Initial residual = 0.00488107, Final residual = 0.00037394, No Iterations 3
smoothSolver:  Solving for k, Initial residual = 0.00615032, Final residual = 0.000446827, No Iterations 4
ExecutionTime = 2.58 s  ClockTime = 3 s

Time = 67

smoothSolver:  Solving for Ux, Initial residual = 0.00379393, Final residual = 0.000250218, No Iterations 6
smoothSolver:  Solving for Uy, Initial residual = 0.0193968, Final residual = 0.00142299, No Iterations 6
GAMG:  Solving for p, Initial residual = 0.0192466, Final residual = 0.00163977, No Iterations 3
time step continuity errors : sum local = 0.0766594, global = 0.0135364, cumulative = 1.33559
smoothSolver:  Solving for epsilon, Initial residual = 0.00480796, Final residual = 0.000371837, No Iterations 3
smoothSolver:  Solving for k, Initial residual = 0.00604127, Final residual = 0.000440404, No Iterations 4
ExecutionTime = 2.61 s  ClockTime = 3 s

Time = 68

smoothSolver:  Solving for Ux, Initial residual = 0.00377313, Final residual = 0.000249788, No Iterations 6
smoothSolver:  Solving for Uy, Initial residual = 0.0194482, Final residual = 0.00143428, No Iterations 6
GAMG:  Solving for p, Initial residual = 0.0186856, Final residual = 0.00109199, No Iterations 4
time step continuity errors : sum local = 0.0510829, global = 0.0043455, cumulative = 1.33994
smoothSolver:  Solving for epsilon, Initial residual = 0.00477112, Final residual = 0.000373913, No Iterations 3
smoothSolver:  Solving for k, Initial residual = 0.00596921, Final residual = 0.000436942, No Iterations 4
ExecutionTime = 2.66 s  ClockTime = 3 s

Time = 69

smoothSolver:  Solving for Ux, Initial residual = 0.00375144, Final residual = 0.000247854, No Iterations 6
smoothSolver:  Solving for Uy, Initial residual = 0.0196081, Final residual = 0.00144503, No Iterations 6
GAMG:  Solving for p, Initial residual = 0.0183612, Final residual = 0.001498, No Iterations 3
time step continuity errors : sum local = 0.0693069, global = 0.0135083, cumulative = 1.35345
smoothSolver:  Solving for epsilon, Initial residual = 0.00472187, Final residual = 0.000373401, No Iterations 3
smoothSolver:  Solving for k, Initial residual = 0.00585989, Final residual = 0.000432461, No Iterations 4
ExecutionTime = 2.69 s  ClockTime = 3 s

Time = 70

smoothSolver:  Solving for Ux, Initial residual = 0.00374621, Final residual = 0.000247851, No Iterations 6
smoothSolver:  Solving for Uy, Initial residual = 0.0197208, Final residual = 0.00145709, No Iterations 6
GAMG:  Solving for p, Initial residual = 0.0178764, Final residual = 0.00156097, No Iterations 3
time step continuity errors : sum local = 0.0724456, global = -0.0108786, cumulative = 1.34257
smoothSolver:  Solving for epsilon, Initial residual = 0.00466871, Final residual = 0.000369776, No Iterations 3
smoothSolver:  Solving for k, Initial residual = 0.00581345, Final residual = 0.000432006, No Iterations 4
ExecutionTime = 2.73 s  ClockTime = 3 s

Time = 71

smoothSolver:  Solving for Ux, Initial residual = 0.00374957, Final residual = 0.000247274, No Iterations 6
smoothSolver:  Solving for Uy, Initial residual = 0.0198462, Final residual = 0.00146529, No Iterations 6
GAMG:  Solving for p, Initial residual = 0.0184192, Final residual = 0.00146665, No Iterations 4
time step continuity errors : sum local = 0.067984, global = -0.0151191, cumulative = 1.32745
smoothSolver:  Solving for epsilon, Initial residual = 0.00464713, Final residual = 0.00037196, No Iterations 3
smoothSolver:  Solving for k, Initial residual = 0.00570885, Final residual = 0.000428063, No Iterations 4
ExecutionTime = 2.76 s  ClockTime = 3 s

Time = 72

smoothSolver:  Solving for Ux, Initial residual = 0.00372889, Final residual = 0.000246187, No Iterations 6
smoothSolver:  Solving for Uy, Initial residual = 0.019966, Final residual = 0.00147714, No Iterations 6
GAMG:  Solving for p, Initial residual = 0.0176124, Final residual = 0.00146658, No Iterations 4
time step continuity errors : sum local = 0.0676421, global = -0.015165, cumulative = 1.31228
smoothSolver:  Solving for epsilon, Initial residual = 0.00460591, Final residual = 0.00037245, No Iterations 3
smoothSolver:  Solving for k, Initial residual = 0.00567698, Final residual = 0.000428631, No Iterations 4
ExecutionTime = 2.8 s  ClockTime = 3 s

Time = 73

smoothSolver:  Solving for Ux, Initial residual = 0.00371992, Final residual = 0.000245731, No Iterations 6
smoothSolver:  Solving for Uy, Initial residual = 0.0201309, Final residual = 0.00148871, No Iterations 6
GAMG:  Solving for p, Initial residual = 0.0180831, Final residual = 0.00149864, No Iterations 4
time step continuity errors : sum local = 0.0692592, global = -0.0150359, cumulative = 1.29725
smoothSolver:  Solving for epsilon, Initial residual = 0.00458241, Final residual = 0.000375108, No Iterations 3
smoothSolver:  Solving for k, Initial residual = 0.00559816, Final residual = 0.000425406, No Iterations 4
ExecutionTime = 2.83 s  ClockTime = 3 s

Time = 74

smoothSolver:  Solving for Ux, Initial residual = 0.00370859, Final residual = 0.00024529, No Iterations 6
smoothSolver:  Solving for Uy, Initial residual = 0.0202274, Final residual = 0.00149926, No Iterations 6
GAMG:  Solving for p, Initial residual = 0.0176407, Final residual = 0.00152213, No Iterations 4
time step continuity errors : sum local = 0.0703181, global = -0.0148408, cumulative = 1.28241
smoothSolver:  Solving for epsilon, Initial residual = 0.0045438, Final residual = 0.00037604, No Iterations 3
smoothSolver:  Solving for k, Initial residual = 0.00552399, Final residual = 0.000424247, No Iterations 4
ExecutionTime = 2.87 s  ClockTime = 3 s

Time = 75

smoothSolver:  Solving for Ux, Initial residual = 0.00370747, Final residual = 0.000245065, No Iterations 6
smoothSolver:  Solving for Uy, Initial residual = 0.0204155, Final residual = 0.00151061, No Iterations 6
GAMG:  Solving for p, Initial residual = 0.0181913, Final residual = 0.00154004, No Iterations 4
time step continuity errors : sum local = 0.0708194, global = -0.014494, cumulative = 1.26791
smoothSolver:  Solving for epsilon, Initial residual = 0.00452675, Final residual = 0.000378676, No Iterations 3
smoothSolver:  Solving for k, Initial residual = 0.00548798, Final residual = 0.000423493, No Iterations 4
ExecutionTime = 2.9 s  ClockTime = 3 s

Time = 76

smoothSolver:  Solving for Ux, Initial residual = 0.00369887, Final residual = 0.000244867, No Iterations 6
smoothSolver:  Solving for Uy, Initial residual = 0.0205202, Final residual = 0.00152188, No Iterations 6
GAMG:  Solving for p, Initial residual = 0.0176273, Final residual = 0.00154146, No Iterations 4
time step continuity errors : sum local = 0.0710592, global = -0.0141946, cumulative = 1.25372
smoothSolver:  Solving for epsilon, Initial residual = 0.00448081, Final residual = 0.000378924, No Iterations 3
smoothSolver:  Solving for k, Initial residual = 0.00542891, Final residual = 0.000421534, No Iterations 4
ExecutionTime = 2.94 s  ClockTime = 3 s

Time = 77

smoothSolver:  Solving for Ux, Initial residual = 0.00369985, Final residual = 0.000244794, No Iterations 6
smoothSolver:  Solving for Uy, Initial residual = 0.0206978, Final residual = 0.00153386, No Iterations 6
GAMG:  Solving for p, Initial residual = 0.0182884, Final residual = 0.0015455, No Iterations 4
time step continuity errors : sum local = 0.0711698, global = -0.0138463, cumulative = 1.23987
smoothSolver:  Solving for epsilon, Initial residual = 0.00446442, Final residual = 0.000381528, No Iterations 3
smoothSolver:  Solving for k, Initial residual = 0.00543394, Final residual = 0.000426086, No Iterations 4
ExecutionTime = 2.98 s  ClockTime = 3 s

Time = 78

smoothSolver:  Solving for Ux, Initial residual = 0.00369703, Final residual = 0.000244747, No Iterations 6
smoothSolver:  Solving for Uy, Initial residual = 0.0208359, Final residual = 0.00154553, No Iterations 6
GAMG:  Solving for p, Initial residual = 0.0179061, Final residual = 0.00155009, No Iterations 4
time step continuity errors : sum local = 0.0710821, global = -0.0134885, cumulative = 1.22638
smoothSolver:  Solving for epsilon, Initial residual = 0.00445133, Final residual = 0.00038502, No Iterations 3
smoothSolver:  Solving for k, Initial residual = 0.00539317, Final residual = 0.000426031, No Iterations 4
ExecutionTime = 3.02 s  ClockTime = 3 s

Time = 79

smoothSolver:  Solving for Ux, Initial residual = 0.00369961, Final residual = 0.000244734, No Iterations 6
smoothSolver:  Solving for Uy, Initial residual = 0.0210182, Final residual = 0.00155797, No Iterations 6
GAMG:  Solving for p, Initial residual = 0.0183521, Final residual = 0.00154001, No Iterations 4
time step continuity errors : sum local = 0.0709519, global = -0.0132753, cumulative = 1.21311
smoothSolver:  Solving for epsilon, Initial residual = 0.00442544, Final residual = 0.000386903, No Iterations 3
smoothSolver:  Solving for k, Initial residual = 0.00533656, Final residual = 0.00042529, No Iterations 4
ExecutionTime = 3.05 s  ClockTime = 3 s

Time = 80

smoothSolver:  Solving for Ux, Initial residual = 0.0036951, Final residual = 0.000244679, No Iterations 6
smoothSolver:  Solving for Uy, Initial residual = 0.0211433, Final residual = 0.00157052, No Iterations 6
GAMG:  Solving for p, Initial residual = 0.0178271, Final residual = 0.00153424, No Iterations 4
time step continuity errors : sum local = 0.0706055, global = -0.0130246, cumulative = 1.20008
smoothSolver:  Solving for epsilon, Initial residual = 0.00440781, Final residual = 0.000389216, No Iterations 3
smoothSolver:  Solving for k, Initial residual = 0.00532491, Final residual = 0.000427877, No Iterations 4
ExecutionTime = 3.09 s  ClockTime = 3 s

Time = 81

smoothSolver:  Solving for Ux, Initial residual = 0.00370023, Final residual = 0.000244685, No Iterations 6
smoothSolver:  Solving for Uy, Initial residual = 0.0213541, Final residual = 0.00158356, No Iterations 6
GAMG:  Solving for p, Initial residual = 0.0184353, Final residual = 0.00150817, No Iterations 4
time step continuity errors : sum local = 0.0691288, global = -0.0128806, cumulative = 1.1872
smoothSolver:  Solving for epsilon, Initial residual = 0.00438899, Final residual = 0.000391827, No Iterations 3
smoothSolver:  Solving for k, Initial residual = 0.00529875, Final residual = 0.000429802, No Iterations 4
ExecutionTime = 3.13 s  ClockTime = 3 s

Time = 82

smoothSolver:  Solving for Ux, Initial residual = 0.00369327, Final residual = 0.000244507, No Iterations 6
smoothSolver:  Solving for Uy, Initial residual = 0.0214875, Final residual = 0.00159686, No Iterations 6
GAMG:  Solving for p, Initial residual = 0.0179024, Final residual = 0.00148038, No Iterations 4
time step continuity errors : sum local = 0.0681316, global = -0.0128809, cumulative = 1.17432
smoothSolver:  Solving for epsilon, Initial residual = 0.00437048, Final residual = 0.000393641, No Iterations 3
smoothSolver:  Solving for k, Initial residual = 0.00529022, Final residual = 0.000432381, No Iterations 4
ExecutionTime = 3.17 s  ClockTime = 3 s

Time = 83

smoothSolver:  Solving for Ux, Initial residual = 0.00369607, Final residual = 0.000244432, No Iterations 6
smoothSolver:  Solving for Uy, Initial residual = 0.0216876, Final residual = 0.00161075, No Iterations 6
GAMG:  Solving for p, Initial residual = 0.0182399, Final residual = 0.00145166, No Iterations 4
time step continuity errors : sum local = 0.0668515, global = -0.0129102, cumulative = 1.16141
smoothSolver:  Solving for epsilon, Initial residual = 0.00434091, Final residual = 0.000395308, No Iterations 3
smoothSolver:  Solving for k, Initial residual = 0.00523847, Final residual = 0.000432252, No Iterations 4
ExecutionTime = 3.21 s  ClockTime = 3 s

Time = 84

smoothSolver:  Solving for Ux, Initial residual = 0.00368966, Final residual = 0.000244299, No Iterations 6
smoothSolver:  Solving for Uy, Initial residual = 0.0218427, Final residual = 0.00162497, No Iterations 6
GAMG:  Solving for p, Initial residual = 0.0179305, Final residual = 0.00144564, No Iterations 4
time step continuity errors : sum local = 0.0661372, global = -0.0130626, cumulative = 1.14835
smoothSolver:  Solving for epsilon, Initial residual = 0.00433785, Final residual = 0.00039799, No Iterations 3
smoothSolver:  Solving for k, Initial residual = 0.00522152, Final residual = 0.00043433, No Iterations 4
ExecutionTime = 3.24 s  ClockTime = 3 s

Time = 85

smoothSolver:  Solving for Ux, Initial residual = 0.00369167, Final residual = 0.000244092, No Iterations 6
smoothSolver:  Solving for Uy, Initial residual = 0.0220622, Final residual = 0.00164012, No Iterations 6
GAMG:  Solving for p, Initial residual = 0.0182439, Final residual = 0.00144015, No Iterations 4
time step continuity errors : sum local = 0.0663188, global = -0.0131163, cumulative = 1.13523
smoothSolver:  Solving for epsilon, Initial residual = 0.00429864, Final residual = 0.000398362, No Iterations 3
smoothSolver:  Solving for k, Initial residual = 0.0051961, Final residual = 0.00043562, No Iterations 4
ExecutionTime = 3.28 s  ClockTime = 3 s

Time = 86

smoothSolver:  Solving for Ux, Initial residual = 0.00368249, Final residual = 0.000243845, No Iterations 6
smoothSolver:  Solving for Uy, Initial residual = 0.0222095, Final residual = 0.00165505, No Iterations 6
GAMG:  Solving for p, Initial residual = 0.0177375, Final residual = 0.00144119, No Iterations 4
time step continuity errors : sum local = 0.0663533, global = -0.0133323, cumulative = 1.1219
smoothSolver:  Solving for epsilon, Initial residual = 0.00429971, Final residual = 0.000401655, No Iterations 3
smoothSolver:  Solving for k, Initial residual = 0.00519967, Final residual = 0.000439166, No Iterations 4
ExecutionTime = 3.31 s  ClockTime = 3 s

Time = 87

smoothSolver:  Solving for Ux, Initial residual = 0.00368259, Final residual = 0.000243601, No Iterations 6
smoothSolver:  Solving for Uy, Initial residual = 0.0224542, Final residual = 0.00167067, No Iterations 6
GAMG:  Solving for p, Initial residual = 0.0178745, Final residual = 0.00147805, No Iterations 4
time step continuity errors : sum local = 0.0675718, global = -0.0133737, cumulative = 1.10853
smoothSolver:  Solving for epsilon, Initial residual = 0.00425929, Final residual = 0.000401132, No Iterations 3
smoothSolver:  Solving for k, Initial residual = 0.00516461, Final residual = 0.000440367, No Iterations 4
ExecutionTime = 3.35 s  ClockTime = 3 s

Time = 88

smoothSolver:  Solving for Ux, Initial residual = 0.00367003, Final residual = 0.000243261, No Iterations 6
smoothSolver:  Solving for Uy, Initial residual = 0.0226259, Final residual = 0.00168721, No Iterations 6
GAMG:  Solving for p, Initial residual = 0.017415, Final residual = 0.00148451, No Iterations 4
time step continuity errors : sum local = 0.0682546, global = -0.0136666, cumulative = 1.09486
smoothSolver:  Solving for epsilon, Initial residual = 0.00426529, Final residual = 0.000403344, No Iterations 3
smoothSolver:  Solving for k, Initial residual = 0.00516758, Final residual = 0.000443235, No Iterations 4
ExecutionTime = 3.39 s  ClockTime = 3 s

Time = 89

smoothSolver:  Solving for Ux, Initial residual = 0.0036684, Final residual = 0.000242892, No Iterations 6
smoothSolver:  Solving for Uy, Initial residual = 0.0228352, Final residual = 0.00170358, No Iterations 6
GAMG:  Solving for p, Initial residual = 0.0166383, Final residual = 0.00148911, No Iterations 4
time step continuity errors : sum local = 0.068576, global = -0.0140305, cumulative = 1.08083
smoothSolver:  Solving for epsilon, Initial residual = 0.00423261, Final residual = 0.000404505, No Iterations 3
smoothSolver:  Solving for k, Initial residual = 0.00513262, Final residual = 0.000443748, No Iterations 4
ExecutionTime = 3.42 s  ClockTime = 4 s

Time = 90

smoothSolver:  Solving for Ux, Initial residual = 0.00365539, Final residual = 0.000242477, No Iterations 6
smoothSolver:  Solving for Uy, Initial residual = 0.0230234, Final residual = 0.00172077, No Iterations 6
GAMG:  Solving for p, Initial residual = 0.0163059, Final residual = 0.00152511, No Iterations 4
time step continuity errors : sum local = 0.0698421, global = -0.0140287, cumulative = 1.0668
smoothSolver:  Solving for epsilon, Initial residual = 0.00420658, Final residual = 0.00040407, No Iterations 3
smoothSolver:  Solving for k, Initial residual = 0.00513514, Final residual = 0.000446948, No Iterations 4
ExecutionTime = 3.46 s  ClockTime = 4 s

Time = 91

smoothSolver:  Solving for Ux, Initial residual = 0.00364581, Final residual = 0.000242071, No Iterations 6
smoothSolver:  Solving for Uy, Initial residual = 0.0232188, Final residual = 0.00173835, No Iterations 6
GAMG:  Solving for p, Initial residual = 0.0159921, Final residual = 0.00154477, No Iterations 4
time step continuity errors : sum local = 0.0712919, global = -0.0143054, cumulative = 1.05249
smoothSolver:  Solving for epsilon, Initial residual = 0.00418667, Final residual = 0.000404981, No Iterations 3
smoothSolver:  Solving for k, Initial residual = 0.00512409, Final residual = 0.00044932, No Iterations 4
ExecutionTime = 3.5 s  ClockTime = 4 s

Time = 92

smoothSolver:  Solving for Ux, Initial residual = 0.00363641, Final residual = 0.000241576, No Iterations 6
smoothSolver:  Solving for Uy, Initial residual = 0.0234192, Final residual = 0.00175491, No Iterations 6
GAMG:  Solving for p, Initial residual = 0.0156012, Final residual = 0.00126706, No Iterations 5
time step continuity errors : sum local = 0.0584594, global = 0.0133973, cumulative = 1.06589
smoothSolver:  Solving for epsilon, Initial residual = 0.0041647, Final residual = 0.000404779, No Iterations 3
smoothSolver:  Solving for k, Initial residual = 0.005101, Final residual = 0.000449882, No Iterations 4
ExecutionTime = 3.53 s  ClockTime = 4 s

Time = 93

smoothSolver:  Solving for Ux, Initial residual = 0.00363081, Final residual = 0.000240777, No Iterations 6
smoothSolver:  Solving for Uy, Initial residual = 0.0236848, Final residual = 0.00177346, No Iterations 6
GAMG:  Solving for p, Initial residual = 0.0152603, Final residual = 0.00125229, No Iterations 4
time step continuity errors : sum local = 0.0572054, global = -0.0144994, cumulative = 1.05139
smoothSolver:  Solving for epsilon, Initial residual = 0.00415787, Final residual = 0.000405037, No Iterations 3
smoothSolver:  Solving for k, Initial residual = 0.00511111, Final residual = 0.000453569, No Iterations 4
ExecutionTime = 3.57 s  ClockTime = 4 s

Time = 94

smoothSolver:  Solving for Ux, Initial residual = 0.00361788, Final residual = 0.000240321, No Iterations 6
smoothSolver:  Solving for Uy, Initial residual = 0.0239217, Final residual = 0.00179406, No Iterations 6
GAMG:  Solving for p, Initial residual = 0.0150402, Final residual = 0.00119235, No Iterations 5
time step continuity errors : sum local = 0.0548936, global = 0.0114449, cumulative = 1.06284
smoothSolver:  Solving for epsilon, Initial residual = 0.00412971, Final residual = 0.000403962, No Iterations 3
smoothSolver:  Solving for k, Initial residual = 0.00508085, Final residual = 0.000453379, No Iterations 4
ExecutionTime = 3.61 s  ClockTime = 4 s

Time = 95

smoothSolver:  Solving for Ux, Initial residual = 0.00361141, Final residual = 0.000240021, No Iterations 6
smoothSolver:  Solving for Uy, Initial residual = 0.0241334, Final residual = 0.00181122, No Iterations 6
GAMG:  Solving for p, Initial residual = 0.0149414, Final residual = 0.00130838, No Iterations 4
time step continuity errors : sum local = 0.0600538, global = -0.0145996, cumulative = 1.04824
smoothSolver:  Solving for epsilon, Initial residual = 0.0041195, Final residual = 0.000403703, No Iterations 3
smoothSolver:  Solving for k, Initial residual = 0.00507769, Final residual = 0.000455056, No Iterations 4
ExecutionTime = 3.64 s  ClockTime = 4 s

Time = 96

smoothSolver:  Solving for Ux, Initial residual = 0.00359903, Final residual = 0.000239233, No Iterations 6
smoothSolver:  Solving for Uy, Initial residual = 0.0243599, Final residual = 0.00182825, No Iterations 6
GAMG:  Solving for p, Initial residual = 0.0147794, Final residual = 0.0012714, No Iterations 5
time step continuity errors : sum local = 0.0581432, global = 0.0120953, cumulative = 1.06033
smoothSolver:  Solving for epsilon, Initial residual = 0.00410886, Final residual = 0.000403204, No Iterations 3
smoothSolver:  Solving for k, Initial residual = 0.00507512, Final residual = 0.000457043, No Iterations 4
ExecutionTime = 3.68 s  ClockTime = 4 s

Time = 97

smoothSolver:  Solving for Ux, Initial residual = 0.00358907, Final residual = 0.000238671, No Iterations 6
smoothSolver:  Solving for Uy, Initial residual = 0.0245973, Final residual = 0.0018462, No Iterations 6
GAMG:  Solving for p, Initial residual = 0.0148554, Final residual = 0.00134484, No Iterations 4
time step continuity errors : sum local = 0.0617189, global = -0.0149118, cumulative = 1.04542
smoothSolver:  Solving for epsilon, Initial residual = 0.00407368, Final residual = 0.000399523, No Iterations 3
smoothSolver:  Solving for k, Initial residual = 0.00506363, Final residual = 0.000457833, No Iterations 4
ExecutionTime = 3.71 s  ClockTime = 4 s

Time = 98

smoothSolver:  Solving for Ux, Initial residual = 0.00357242, Final residual = 0.000237706, No Iterations 6
smoothSolver:  Solving for Uy, Initial residual = 0.0248041, Final residual = 0.00186385, No Iterations 6
GAMG:  Solving for p, Initial residual = 0.0146183, Final residual = 0.0013176, No Iterations 5
time step continuity errors : sum local = 0.0604035, global = 0.0128293, cumulative = 1.05825
smoothSolver:  Solving for epsilon, Initial residual = 0.00405353, Final residual = 0.000398103, No Iterations 3
smoothSolver:  Solving for k, Initial residual = 0.00506008, Final residual = 0.000458921, No Iterations 4
ExecutionTime = 3.75 s  ClockTime = 4 s

Time = 99

smoothSolver:  Solving for Ux, Initial residual = 0.00356097, Final residual = 0.000237149, No Iterations 6
smoothSolver:  Solving for Uy, Initial residual = 0.025056, Final residual = 0.00188132, No Iterations 6
GAMG:  Solving for p, Initial residual = 0.0146667, Final residual = 0.00138161, No Iterations 4
time step continuity errors : sum local = 0.0627701, global = -0.0147859, cumulative = 1.04346
smoothSolver:  Solving for epsilon, Initial residual = 0.00404, Final residual = 0.0003962, No Iterations 3
smoothSolver:  Solving for k, Initial residual = 0.00508103, Final residual = 0.000461677, No Iterations 4
ExecutionTime = 3.79 s  ClockTime = 4 s

Time = 100

smoothSolver:  Solving for Ux, Initial residual = 0.00354425, Final residual = 0.00023609, No Iterations 6
smoothSolver:  Solving for Uy, Initial residual = 0.0252722, Final residual = 0.0018998, No Iterations 6
GAMG:  Solving for p, Initial residual = 0.0146154, Final residual = 0.00135061, No Iterations 5
time step continuity errors : sum local = 0.0616893, global = 0.0128064, cumulative = 1.05627
smoothSolver:  Solving for epsilon, Initial residual = 0.00400683, Final residual = 0.000393127, No Iterations 3
smoothSolver:  Solving for k, Initial residual = 0.00508102, Final residual = 0.000462504, No Iterations 4
ExecutionTime = 3.89 s  ClockTime = 4 s

streamLine streamlines write:
    seeded 10 particles
    Tracks:10
    Total samples:12015
    Writing data to "/scratch/dev10/georgeg/shareRep/georgeg/myOpenFoam_run6_1537796763668SGASg/pitzDaily/postProcessing/sets/streamlines/100"
Time = 101

smoothSolver:  Solving for Ux, Initial residual = 0.00353051, Final residual = 0.000235521, No Iterations 6
smoothSolver:  Solving for Uy, Initial residual = 0.0254911, Final residual = 0.0019162, No Iterations 6
GAMG:  Solving for p, Initial residual = 0.0145782, Final residual = 0.00140599, No Iterations 4
time step continuity errors : sum local = 0.063887, global = -0.0145643, cumulative = 1.04171
smoothSolver:  Solving for epsilon, Initial residual = 0.00398423, Final residual = 0.000389612, No Iterations 3
smoothSolver:  Solving for k, Initial residual = 0.00509241, Final residual = 0.000463994, No Iterations 4
ExecutionTime = 4.07 s  ClockTime = 4 s

Time = 102

smoothSolver:  Solving for Ux, Initial residual = 0.00351233, Final residual = 0.000234363, No Iterations 6
smoothSolver:  Solving for Uy, Initial residual = 0.0257211, Final residual = 0.00193353, No Iterations 6
GAMG:  Solving for p, Initial residual = 0.0145178, Final residual = 0.00137213, No Iterations 5
time step continuity errors : sum local = 0.062072, global = 0.012546, cumulative = 1.05425
smoothSolver:  Solving for epsilon, Initial residual = 0.00396732, Final residual = 0.000387764, No Iterations 3
smoothSolver:  Solving for k, Initial residual = 0.00509995, Final residual = 0.000465379, No Iterations 4
ExecutionTime = 4.11 s  ClockTime = 4 s

Time = 103

smoothSolver:  Solving for Ux, Initial residual = 0.00349766, Final residual = 0.000233756, No Iterations 6
smoothSolver:  Solving for Uy, Initial residual = 0.0259397, Final residual = 0.00195116, No Iterations 6
GAMG:  Solving for p, Initial residual = 0.0146292, Final residual = 0.00140047, No Iterations 4
time step continuity errors : sum local = 0.0634233, global = -0.0139955, cumulative = 1.04026
smoothSolver:  Solving for epsilon, Initial residual = 0.00394111, Final residual = 0.000383582, No Iterations 3
smoothSolver:  Solving for k, Initial residual = 0.00510724, Final residual = 0.000465959, No Iterations 4
ExecutionTime = 4.15 s  ClockTime = 4 s

Time = 104

smoothSolver:  Solving for Ux, Initial residual = 0.00347725, Final residual = 0.000232596, No Iterations 6
smoothSolver:  Solving for Uy, Initial residual = 0.0261369, Final residual = 0.0019671, No Iterations 6
GAMG:  Solving for p, Initial residual = 0.0144178, Final residual = 0.00135674, No Iterations 5
time step continuity errors : sum local = 0.0612744, global = 0.0119433, cumulative = 1.0522
smoothSolver:  Solving for epsilon, Initial residual = 0.00392149, Final residual = 0.000380945, No Iterations 3
smoothSolver:  Solving for k, Initial residual = 0.00512802, Final residual = 0.000468042, No Iterations 4
ExecutionTime = 4.18 s  ClockTime = 4 s

Time = 105

smoothSolver:  Solving for Ux, Initial residual = 0.00346237, Final residual = 0.000231958, No Iterations 6
smoothSolver:  Solving for Uy, Initial residual = 0.0263694, Final residual = 0.00198394, No Iterations 6
GAMG:  Solving for p, Initial residual = 0.0144239, Final residual = 0.0013949, No Iterations 4
time step continuity errors : sum local = 0.0624903, global = -0.0134178, cumulative = 1.03878
smoothSolver:  Solving for epsilon, Initial residual = 0.003906, Final residual = 0.000377234, No Iterations 3
smoothSolver:  Solving for k, Initial residual = 0.00512883, Final residual = 0.000467709, No Iterations 4
ExecutionTime = 4.22 s  ClockTime = 4 s

Time = 106

smoothSolver:  Solving for Ux, Initial residual = 0.00344144, Final residual = 0.000230763, No Iterations 6
smoothSolver:  Solving for Uy, Initial residual = 0.0265677, Final residual = 0.00200006, No Iterations 6
GAMG:  Solving for p, Initial residual = 0.0145067, Final residual = 0.00133042, No Iterations 5
time step continuity errors : sum local = 0.0598125, global = 0.0112274, cumulative = 1.05001
smoothSolver:  Solving for epsilon, Initial residual = 0.00388808, Final residual = 0.000374069, No Iterations 3
smoothSolver:  Solving for k, Initial residual = 0.00514943, Final residual = 0.000469155, No Iterations 4
ExecutionTime = 4.25 s  ClockTime = 4 s

Time = 107

smoothSolver:  Solving for Ux, Initial residual = 0.00342649, Final residual = 0.000230201, No Iterations 6
smoothSolver:  Solving for Uy, Initial residual = 0.0267696, Final residual = 0.00201672, No Iterations 6
GAMG:  Solving for p, Initial residual = 0.0144003, Final residual = 0.00133561, No Iterations 4
time step continuity errors : sum local = 0.0596765, global = -0.0124865, cumulative = 1.03752
smoothSolver:  Solving for epsilon, Initial residual = 0.00387625, Final residual = 0.000371537, No Iterations 3
smoothSolver:  Solving for k, Initial residual = 0.00515921, Final residual = 0.00046926, No Iterations 4
ExecutionTime = 4.29 s  ClockTime = 4 s

Time = 108

smoothSolver:  Solving for Ux, Initial residual = 0.00340404, Final residual = 0.000229004, No Iterations 6
smoothSolver:  Solving for Uy, Initial residual = 0.0269754, Final residual = 0.00203179, No Iterations 6
GAMG:  Solving for p, Initial residual = 0.0143849, Final residual = 0.00128536, No Iterations 5
time step continuity errors : sum local = 0.0571481, global = 0.010168, cumulative = 1.04769
smoothSolver:  Solving for epsilon, Initial residual = 0.00385678, Final residual = 0.000368592, No Iterations 3
smoothSolver:  Solving for k, Initial residual = 0.00516638, Final residual = 0.000469446, No Iterations 4
ExecutionTime = 4.33 s  ClockTime = 4 s

Time = 109

smoothSolver:  Solving for Ux, Initial residual = 0.003391, Final residual = 0.00022859, No Iterations 6
smoothSolver:  Solving for Uy, Initial residual = 0.0271798, Final residual = 0.00205023, No Iterations 6
GAMG:  Solving for p, Initial residual = 0.0146075, Final residual = 0.00126433, No Iterations 4
time step continuity errors : sum local = 0.0562216, global = -0.0113937, cumulative = 1.0363
smoothSolver:  Solving for epsilon, Initial residual = 0.00384793, Final residual = 0.000367385, No Iterations 3
smoothSolver:  Solving for k, Initial residual = 0.00518658, Final residual = 0.000470066, No Iterations 4
ExecutionTime = 4.36 s  ClockTime = 5 s

Time = 110

smoothSolver:  Solving for Ux, Initial residual = 0.00336724, Final residual = 0.000227428, No Iterations 6
smoothSolver:  Solving for Uy, Initial residual = 0.0273528, Final residual = 0.00206506, No Iterations 6
GAMG:  Solving for p, Initial residual = 0.0143729, Final residual = 0.00120339, No Iterations 5
time step continuity errors : sum local = 0.0532872, global = 0.00891492, cumulative = 1.04521
smoothSolver:  Solving for epsilon, Initial residual = 0.00383303, Final residual = 0.00036533, No Iterations 3
smoothSolver:  Solving for k, Initial residual = 0.0052079, Final residual = 0.000471031, No Iterations 4
ExecutionTime = 4.41 s  ClockTime = 5 s

Time = 111

smoothSolver:  Solving for Ux, Initial residual = 0.00335471, Final residual = 0.000227137, No Iterations 6
smoothSolver:  Solving for Uy, Initial residual = 0.0275746, Final residual = 0.00208282, No Iterations 6
GAMG:  Solving for p, Initial residual = 0.0144906, Final residual = 0.00115711, No Iterations 4
time step continuity errors : sum local = 0.0508598, global = -0.0104223, cumulative = 1.03479
smoothSolver:  Solving for epsilon, Initial residual = 0.00382985, Final residual = 0.000363684, No Iterations 3
smoothSolver:  Solving for k, Initial residual = 0.0052123, Final residual = 0.000470087, No Iterations 4
ExecutionTime = 4.44 s  ClockTime = 5 s

Time = 112

smoothSolver:  Solving for Ux, Initial residual = 0.00333149, Final residual = 0.000226169, No Iterations 6
smoothSolver:  Solving for Uy, Initial residual = 0.0277634, Final residual = 0.00209963, No Iterations 6
[...]
time step continuity errors : sum local = 0.00689326, global = 0.000307016, cumulative = 0.946849
smoothSolver:  Solving for epsilon, Initial residual = 0.000319066, Final residual = 2.32209e-05, No Iterations 3
smoothSolver:  Solving for k, Initial residual = 0.000547154, Final residual = 3.36519e-05, No Iterations 4
ExecutionTime = 10.12 s  ClockTime = 10 s

Time = 261

smoothSolver:  Solving for Ux, Initial residual = 0.000301586, Final residual = 2.07284e-05, No Iterations 6
smoothSolver:  Solving for Uy, Initial residual = 0.00249138, Final residual = 0.000170552, No Iterations 6
GAMG:  Solving for p, Initial residual = 0.00345261, Final residual = 0.00033019, No Iterations 3
time step continuity errors : sum local = 0.0140519, global = 0.000822156, cumulative = 0.947671
smoothSolver:  Solving for epsilon, Initial residual = 0.000310859, Final residual = 2.23636e-05, No Iterations 3
smoothSolver:  Solving for k, Initial residual = 0.000531163, Final residual = 3.26417e-05, No Iterations 4
ExecutionTime = 10.15 s  ClockTime = 10 s

Time = 262

smoothSolver:  Solving for Ux, Initial residual = 0.000292878, Final residual = 2.02406e-05, No Iterations 6
smoothSolver:  Solving for Uy, Initial residual = 0.00238942, Final residual = 0.000162889, No Iterations 6
GAMG:  Solving for p, Initial residual = 0.00248113, Final residual = 0.000239365, No Iterations 4
time step continuity errors : sum local = 0.0101835, global = -0.0006923, cumulative = 0.946979
smoothSolver:  Solving for epsilon, Initial residual = 0.00030001, Final residual = 2.15951e-05, No Iterations 3
smoothSolver:  Solving for k, Initial residual = 0.000515507, Final residual = 3.15813e-05, No Iterations 4
ExecutionTime = 10.19 s  ClockTime = 10 s

Time = 263

smoothSolver:  Solving for Ux, Initial residual = 0.000284341, Final residual = 1.96452e-05, No Iterations 6
smoothSolver:  Solving for Uy, Initial residual = 0.00228454, Final residual = 0.000155309, No Iterations 6
GAMG:  Solving for p, Initial residual = 0.0022848, Final residual = 0.00016415, No Iterations 5
time step continuity errors : sum local = 0.00697702, global = 0.000417613, cumulative = 0.947396
smoothSolver:  Solving for epsilon, Initial residual = 0.000291585, Final residual = 2.07719e-05, No Iterations 3
smoothSolver:  Solving for k, Initial residual = 0.000499386, Final residual = 3.04167e-05, No Iterations 4
ExecutionTime = 10.23 s  ClockTime = 10 s

Time = 264

smoothSolver:  Solving for Ux, Initial residual = 0.000277164, Final residual = 1.9133e-05, No Iterations 6
smoothSolver:  Solving for Uy, Initial residual = 0.00220223, Final residual = 0.000147885, No Iterations 6
GAMG:  Solving for p, Initial residual = 0.00219033, Final residual = 0.000202031, No Iterations 4
time step continuity errors : sum local = 0.00858349, global = -0.000626762, cumulative = 0.94677
smoothSolver:  Solving for epsilon, Initial residual = 0.000282973, Final residual = 2.00851e-05, No Iterations 3
smoothSolver:  Solving for k, Initial residual = 0.000484264, Final residual = 2.95484e-05, No Iterations 4
ExecutionTime = 10.26 s  ClockTime = 10 s

Time = 265

smoothSolver:  Solving for Ux, Initial residual = 0.000271672, Final residual = 1.86861e-05, No Iterations 6
smoothSolver:  Solving for Uy, Initial residual = 0.00209674, Final residual = 0.000140862, No Iterations 6
GAMG:  Solving for p, Initial residual = 0.00304505, Final residual = 0.000219333, No Iterations 4
time step continuity errors : sum local = 0.00935232, global = -0.000713954, cumulative = 0.946056
smoothSolver:  Solving for epsilon, Initial residual = 0.000270932, Final residual = 1.90968e-05, No Iterations 3
smoothSolver:  Solving for k, Initial residual = 0.000466817, Final residual = 2.83686e-05, No Iterations 4
ExecutionTime = 10.3 s  ClockTime = 11 s

Time = 266

smoothSolver:  Solving for Ux, Initial residual = 0.000264154, Final residual = 1.81381e-05, No Iterations 6
smoothSolver:  Solving for Uy, Initial residual = 0.00200874, Final residual = 0.000134132, No Iterations 6
GAMG:  Solving for p, Initial residual = 0.00205861, Final residual = 0.00016703, No Iterations 5
time step continuity errors : sum local = 0.00710549, global = 0.000762447, cumulative = 0.946818
smoothSolver:  Solving for epsilon, Initial residual = 0.000258946, Final residual = 1.82541e-05, No Iterations 3
smoothSolver:  Solving for k, Initial residual = 0.000450115, Final residual = 2.72867e-05, No Iterations 4
ExecutionTime = 10.35 s  ClockTime = 11 s

Time = 267

smoothSolver:  Solving for Ux, Initial residual = 0.000256272, Final residual = 1.74417e-05, No Iterations 6
smoothSolver:  Solving for Uy, Initial residual = 0.00194922, Final residual = 0.000127511, No Iterations 6
GAMG:  Solving for p, Initial residual = 0.00219631, Final residual = 0.000173686, No Iterations 4
time step continuity errors : sum local = 0.00738211, global = -0.000535689, cumulative = 0.946282
smoothSolver:  Solving for epsilon, Initial residual = 0.000251662, Final residual = 1.74605e-05, No Iterations 3
smoothSolver:  Solving for k, Initial residual = 0.000434686, Final residual = 2.63284e-05, No Iterations 4
ExecutionTime = 10.38 s  ClockTime = 11 s

Time = 268

smoothSolver:  Solving for Ux, Initial residual = 0.00024919, Final residual = 1.68772e-05, No Iterations 6
smoothSolver:  Solving for Uy, Initial residual = 0.00186188, Final residual = 0.000121057, No Iterations 6
GAMG:  Solving for p, Initial residual = 0.00242775, Final residual = 0.00018387, No Iterations 4
time step continuity errors : sum local = 0.00782494, global = -0.000614997, cumulative = 0.945667
smoothSolver:  Solving for epsilon, Initial residual = 0.000241484, Final residual = 1.67142e-05, No Iterations 3
smoothSolver:  Solving for k, Initial residual = 0.000418079, Final residual = 2.52875e-05, No Iterations 4
ExecutionTime = 10.42 s  ClockTime = 11 s

Time = 269

smoothSolver:  Solving for Ux, Initial residual = 0.000241664, Final residual = 1.62794e-05, No Iterations 6
smoothSolver:  Solving for Uy, Initial residual = 0.00176971, Final residual = 0.000115642, No Iterations 6
GAMG:  Solving for p, Initial residual = 0.00194924, Final residual = 0.000177588, No Iterations 4
time step continuity errors : sum local = 0.00754616, global = -0.000581176, cumulative = 0.945086
smoothSolver:  Solving for epsilon, Initial residual = 0.000235178, Final residual = 1.59259e-05, No Iterations 3
smoothSolver:  Solving for k, Initial residual = 0.000403533, Final residual = 2.43554e-05, No Iterations 4
ExecutionTime = 10.46 s  ClockTime = 11 s

Time = 270

smoothSolver:  Solving for Ux, Initial residual = 0.000234118, Final residual = 1.55935e-05, No Iterations 6
smoothSolver:  Solving for Uy, Initial residual = 0.00170766, Final residual = 0.000170366, No Iterations 5
GAMG:  Solving for p, Initial residual = 0.00224409, Final residual = 0.000167714, No Iterations 4
time step continuity errors : sum local = 0.00712918, global = -0.000561883, cumulative = 0.944524
smoothSolver:  Solving for epsilon, Initial residual = 0.000225638, Final residual = 1.52643e-05, No Iterations 3
smoothSolver:  Solving for k, Initial residual = 0.000387932, Final residual = 2.3402e-05, No Iterations 4
ExecutionTime = 10.5 s  ClockTime = 11 s

Time = 271

smoothSolver:  Solving for Ux, Initial residual = 0.000225369, Final residual = 1.48729e-05, No Iterations 6
smoothSolver:  Solving for Uy, Initial residual = 0.0016679, Final residual = 0.000166064, No Iterations 5
GAMG:  Solving for p, Initial residual = 0.00215308, Final residual = 0.000158544, No Iterations 4
time step continuity errors : sum local = 0.00674237, global = -0.00048313, cumulative = 0.944041
smoothSolver:  Solving for epsilon, Initial residual = 0.000215264, Final residual = 1.45361e-05, No Iterations 3
smoothSolver:  Solving for k, Initial residual = 0.000372816, Final residual = 2.24589e-05, No Iterations 4
ExecutionTime = 10.53 s  ClockTime = 11 s

Time = 272

smoothSolver:  Solving for Ux, Initial residual = 0.000216235, Final residual = 1.41803e-05, No Iterations 6
smoothSolver:  Solving for Uy, Initial residual = 0.00159296, Final residual = 0.000104812, No Iterations 6
GAMG:  Solving for p, Initial residual = 0.0017564, Final residual = 0.000148572, No Iterations 4
time step continuity errors : sum local = 0.00630845, global = -8.24437e-05, cumulative = 0.943959
smoothSolver:  Solving for epsilon, Initial residual = 0.000206364, Final residual = 1.39169e-05, No Iterations 3
smoothSolver:  Solving for k, Initial residual = 0.000358542, Final residual = 2.16307e-05, No Iterations 4
ExecutionTime = 10.57 s  ClockTime = 11 s

Time = 273

smoothSolver:  Solving for Ux, Initial residual = 0.000209042, Final residual = 1.35806e-05, No Iterations 6
smoothSolver:  Solving for Uy, Initial residual = 0.00154081, Final residual = 0.000153206, No Iterations 5
GAMG:  Solving for p, Initial residual = 0.00219367, Final residual = 0.000199257, No Iterations 3
time step continuity errors : sum local = 0.00845722, global = -0.000911373, cumulative = 0.943047
smoothSolver:  Solving for epsilon, Initial residual = 0.000200836, Final residual = 1.32712e-05, No Iterations 3
smoothSolver:  Solving for k, Initial residual = 0.000344794, Final residual = 2.07989e-05, No Iterations 4
ExecutionTime = 10.6 s  ClockTime = 11 s

Time = 274

smoothSolver:  Solving for Ux, Initial residual = 0.000201075, Final residual = 1.30016e-05, No Iterations 6
smoothSolver:  Solving for Uy, Initial residual = 0.001468, Final residual = 9.68481e-05, No Iterations 6
GAMG:  Solving for p, Initial residual = 0.00181038, Final residual = 0.00015376, No Iterations 4
time step continuity errors : sum local = 0.00652902, global = 0.000758137, cumulative = 0.943806
smoothSolver:  Solving for epsilon, Initial residual = 0.000193495, Final residual = 1.2776e-05, No Iterations 3
smoothSolver:  Solving for k, Initial residual = 0.000332421, Final residual = 2.00574e-05, No Iterations 4
ExecutionTime = 10.64 s  ClockTime = 11 s

Time = 275

smoothSolver:  Solving for Ux, Initial residual = 0.000192849, Final residual = 1.92297e-05, No Iterations 5
smoothSolver:  Solving for Uy, Initial residual = 0.00140611, Final residual = 9.34557e-05, No Iterations 6
GAMG:  Solving for p, Initial residual = 0.00244314, Final residual = 0.000192473, No Iterations 3
time step continuity errors : sum local = 0.00817123, global = -0.0010838, cumulative = 0.942722
smoothSolver:  Solving for epsilon, Initial residual = 0.000189981, Final residual = 1.21962e-05, No Iterations 3
smoothSolver:  Solving for k, Initial residual = 0.000319845, Final residual = 1.92609e-05, No Iterations 4
ExecutionTime = 10.67 s  ClockTime = 11 s

Time = 276

smoothSolver:  Solving for Ux, Initial residual = 0.000186973, Final residual = 1.86154e-05, No Iterations 5
smoothSolver:  Solving for Uy, Initial residual = 0.00137722, Final residual = 8.9963e-05, No Iterations 6
GAMG:  Solving for p, Initial residual = 0.00193489, Final residual = 0.000161658, No Iterations 4
time step continuity errors : sum local = 0.00685735, global = 0.000853825, cumulative = 0.943576
smoothSolver:  Solving for epsilon, Initial residual = 0.000182361, Final residual = 1.17179e-05, No Iterations 3
smoothSolver:  Solving for k, Initial residual = 0.000307441, Final residual = 1.85564e-05, No Iterations 4
ExecutionTime = 10.72 s  ClockTime = 11 s

Time = 277

smoothSolver:  Solving for Ux, Initial residual = 0.000177825, Final residual = 1.75974e-05, No Iterations 5
smoothSolver:  Solving for Uy, Initial residual = 0.00129152, Final residual = 8.70523e-05, No Iterations 6
GAMG:  Solving for p, Initial residual = 0.00163121, Final residual = 0.000157809, No Iterations 4
time step continuity errors : sum local = 0.00668307, global = 0.000864899, cumulative = 0.94444
smoothSolver:  Solving for epsilon, Initial residual = 0.000174493, Final residual = 1.12255e-05, No Iterations 3
smoothSolver:  Solving for k, Initial residual = 0.000295232, Final residual = 1.79022e-05, No Iterations 4
ExecutionTime = 10.75 s  ClockTime = 11 s

Time = 278

smoothSolver:  Solving for Ux, Initial residual = 0.000170254, Final residual = 1.68105e-05, No Iterations 5
smoothSolver:  Solving for Uy, Initial residual = 0.00124851, Final residual = 8.544e-05, No Iterations 6
GAMG:  Solving for p, Initial residual = 0.00164885, Final residual = 0.000149646, No Iterations 4
time step continuity errors : sum local = 0.00633218, global = 0.000780801, cumulative = 0.945221
smoothSolver:  Solving for epsilon, Initial residual = 0.000169107, Final residual = 1.0913e-05, No Iterations 3
smoothSolver:  Solving for k, Initial residual = 0.000284739, Final residual = 1.7293e-05, No Iterations 4
ExecutionTime = 10.79 s  ClockTime = 11 s

Time = 279

smoothSolver:  Solving for Ux, Initial residual = 0.000164082, Final residual = 1.61161e-05, No Iterations 5
smoothSolver:  Solving for Uy, Initial residual = 0.00123008, Final residual = 8.45423e-05, No Iterations 6
GAMG:  Solving for p, Initial residual = 0.00224942, Final residual = 0.000194045, No Iterations 3
time step continuity errors : sum local = 0.00822452, global = -0.000719629, cumulative = 0.944502
smoothSolver:  Solving for epsilon, Initial residual = 0.000165477, Final residual = 1.0457e-05, No Iterations 3
smoothSolver:  Solving for k, Initial residual = 0.00027399, Final residual = 1.66478e-05, No Iterations 4
ExecutionTime = 10.82 s  ClockTime = 11 s

Time = 280

smoothSolver:  Solving for Ux, Initial residual = 0.000157959, Final residual = 1.55007e-05, No Iterations 5
smoothSolver:  Solving for Uy, Initial residual = 0.00119298, Final residual = 8.31648e-05, No Iterations 6
GAMG:  Solving for p, Initial residual = 0.00142531, Final residual = 0.000110128, No Iterations 5
time step continuity errors : sum local = 0.00465896, global = -0.000345753, cumulative = 0.944156
smoothSolver:  Solving for epsilon, Initial residual = 0.000160543, Final residual = 1.01613e-05, No Iterations 3
smoothSolver:  Solving for k, Initial residual = 0.000264518, Final residual = 1.6086e-05, No Iterations 4
ExecutionTime = 10.86 s  ClockTime = 11 s

Time = 281

smoothSolver:  Solving for Ux, Initial residual = 0.000150583, Final residual = 1.46751e-05, No Iterations 5
smoothSolver:  Solving for Uy, Initial residual = 0.00116821, Final residual = 8.15094e-05, No Iterations 6
GAMG:  Solving for p, Initial residual = 0.00163957, Final residual = 0.000132723, No Iterations 4
time step continuity errors : sum local = 0.00560563, global = 0.000640993, cumulative = 0.944797
smoothSolver:  Solving for epsilon, Initial residual = 0.000159131, Final residual = 9.90741e-06, No Iterations 3
smoothSolver:  Solving for k, Initial residual = 0.000256535, Final residual = 1.56315e-05, No Iterations 4
ExecutionTime = 10.89 s  ClockTime = 11 s

Time = 282

smoothSolver:  Solving for Ux, Initial residual = 0.000145232, Final residual = 1.42033e-05, No Iterations 5
smoothSolver:  Solving for Uy, Initial residual = 0.00113393, Final residual = 7.94032e-05, No Iterations 6
GAMG:  Solving for p, Initial residual = 0.00214912, Final residual = 0.000176003, No Iterations 3
time step continuity errors : sum local = 0.00744779, global = -0.000682262, cumulative = 0.944115
smoothSolver:  Solving for epsilon, Initial residual = 0.000154353, Final residual = 9.66793e-06, No Iterations 3
smoothSolver:  Solving for k, Initial residual = 0.000248163, Final residual = 1.51153e-05, No Iterations 4
ExecutionTime = 10.93 s  ClockTime = 11 s

Time = 283

smoothSolver:  Solving for Ux, Initial residual = 0.00014035, Final residual = 1.37944e-05, No Iterations 5
smoothSolver:  Solving for Uy, Initial residual = 0.00111582, Final residual = 7.71497e-05, No Iterations 6
GAMG:  Solving for p, Initial residual = 0.00132488, Final residual = 9.43705e-05, No Iterations 5
time step continuity errors : sum local = 0.00398476, global = -0.000313806, cumulative = 0.943801
smoothSolver:  Solving for epsilon, Initial residual = 0.000148692, Final residual = 9.49075e-06, No Iterations 3
smoothSolver:  Solving for k, Initial residual = 0.000241758, Final residual = 1.4745e-05, No Iterations 4
ExecutionTime = 10.96 s  ClockTime = 11 s

Time = 284

smoothSolver:  Solving for Ux, Initial residual = 0.000134288, Final residual = 1.31587e-05, No Iterations 5
smoothSolver:  Solving for Uy, Initial residual = 0.00109439, Final residual = 7.4635e-05, No Iterations 6
GAMG:  Solving for p, Initial residual = 0.00151149, Final residual = 0.000149597, No Iterations 3
time step continuity errors : sum local = 0.00630953, global = -0.000557921, cumulative = 0.943243
smoothSolver:  Solving for epsilon, Initial residual = 0.000145757, Final residual = 9.43254e-06, No Iterations 3
smoothSolver:  Solving for k, Initial residual = 0.000235545, Final residual = 1.43933e-05, No Iterations 4
ExecutionTime = 11 s  ClockTime = 11 s

Time = 285

smoothSolver:  Solving for Ux, Initial residual = 0.000130714, Final residual = 1.29536e-05, No Iterations 5
smoothSolver:  Solving for Uy, Initial residual = 0.00106063, Final residual = 7.21476e-05, No Iterations 6
GAMG:  Solving for p, Initial residual = 0.00202574, Final residual = 0.000173769, No Iterations 3
time step continuity errors : sum local = 0.00734293, global = -0.000661433, cumulative = 0.942581
smoothSolver:  Solving for epsilon, Initial residual = 0.000143285, Final residual = 9.23683e-06, No Iterations 3
smoothSolver:  Solving for k, Initial residual = 0.000229638, Final residual = 1.39675e-05, No Iterations 4
ExecutionTime = 11.03 s  ClockTime = 11 s

Time = 286

smoothSolver:  Solving for Ux, Initial residual = 0.000126356, Final residual = 1.25833e-05, No Iterations 5
smoothSolver:  Solving for Uy, Initial residual = 0.00103296, Final residual = 6.91812e-05, No Iterations 6
GAMG:  Solving for p, Initial residual = 0.00120031, Final residual = 0.000114447, No Iterations 4
time step continuity errors : sum local = 0.00482772, global = 0.000569318, cumulative = 0.943151
smoothSolver:  Solving for epsilon, Initial residual = 0.000140731, Final residual = 9.19361e-06, No Iterations 3
smoothSolver:  Solving for k, Initial residual = 0.000225134, Final residual = 1.3668e-05, No Iterations 4
ExecutionTime = 11.06 s  ClockTime = 11 s

Time = 287

smoothSolver:  Solving for Ux, Initial residual = 0.000122333, Final residual = 1.21983e-05, No Iterations 5
smoothSolver:  Solving for Uy, Initial residual = 0.00100615, Final residual = 6.71241e-05, No Iterations 6
GAMG:  Solving for p, Initial residual = 0.00148352, Final residual = 0.000145159, No Iterations 3
time step continuity errors : sum local = 0.00611444, global = -0.000576804, cumulative = 0.942574
smoothSolver:  Solving for epsilon, Initial residual = 0.000140021, Final residual = 9.08614e-06, No Iterations 3
smoothSolver:  Solving for k, Initial residual = 0.000220424, Final residual = 1.33765e-05, No Iterations 4
ExecutionTime = 11.1 s  ClockTime = 11 s

Time = 288

smoothSolver:  Solving for Ux, Initial residual = 0.00012056, Final residual = 7.8056e-06, No Iterations 6
smoothSolver:  Solving for Uy, Initial residual = 0.000959834, Final residual = 6.43909e-05, No Iterations 6
GAMG:  Solving for p, Initial residual = 0.00191644, Final residual = 0.000161493, No Iterations 3
time step continuity errors : sum local = 0.00681813, global = -0.000731564, cumulative = 0.941842
smoothSolver:  Solving for epsilon, Initial residual = 0.000137225, Final residual = 8.98917e-06, No Iterations 3
smoothSolver:  Solving for k, Initial residual = 0.000215144, Final residual = 1.30281e-05, No Iterations 4
ExecutionTime = 11.14 s  ClockTime = 11 s


SIMPLE solution converged in 288 iterations

streamLine streamlines write:
    seeded 10 particles
    Tracks:10
    Total samples:11980
    Writing data to "/scratch/dev10/georgeg/shareRep/georgeg/myOpenFoam_run6_1537796763668SGASg/pitzDaily/postProcessing/sets/streamlines/288"
End

