/opt/openfoam5/etc/config.sh/functions: line 45: .: /bin/sh: cannot execute binary file
/bin/bash: warning: setlocale: LC_ALL: cannot change locale (en_US.UTF-8)
Welcome to the OpenFOAM v5 Docker Image for LSF

Provides bash terminal with OpenFOAM 5.0 and ParaView 5.4.0

/bin/bash: warning: setlocale: LC_ALL: cannot change locale (en_US.UTF-8)
/*---------------------------------------------------------------------------*\
| =========                 |                                                 |
| \\      /  F ield         | OpenFOAM: The Open Source CFD Toolbox           |
|  \\    /   O peration     | Version:  5.x                                   |
|   \\  /    A nd           | Web:      www.OpenFOAM.org                      |
|    \\/     M anipulation  |                                                 |
\*---------------------------------------------------------------------------*/
Build  : 5.x-197d9d3bf20a
Exec   : blockMesh
Date   : Apr 08 2018
Time   : 19:27:42
Host   : "platidpxn03"
PID    : 11
I/O    : uncollated
Case   : /shared/lsfadmin/myOpenFoam_run_1523215655117LY1E1/pitzDaily
nProcs : 1
sigFpe : Enabling floating point exception trapping (FOAM_SIGFPE).
fileModificationChecking : Monitoring run-time modified files using timeStampMaster (fileModificationSkew 10)
allowSystemOperations : Allowing user-supplied system call operations

// * * * * * * * * * * * * * * * * * * * * * * * * * * * * * * * * * * * * * //
Create time

Creating block mesh from
    "/shared/lsfadmin/myOpenFoam_run_1523215655117LY1E1/pitzDaily/system/blockMeshDict"
Creating block edges
No non-planar block faces defined
Creating topology blocks
Creating topology patches

Creating block mesh topology

Check topology

	Basic statistics
		Number of internal faces : 5
		Number of boundary faces : 20
		Number of defined boundary faces : 20
		Number of undefined boundary faces : 0
	Checking patch -> block consistency

Creating block offsets
Creating merge list .

Creating polyMesh from blockMesh
Creating patches
Creating cells
Creating points with scale 0.001
    Block 0 cell size :
        i : 0.00158284 .. 0.000791418
        j : 0.000318841 .. 0.000420268
        k : 0.001 .. 0.001

    Block 1 cell size :
        i : 0.000528387 .. 0.00211355
        j : 0.00112889 .. 0.000360188
        k : 0.001 .. 0.001

    Block 2 cell size :
        i : 0.000528387 .. 0.00211355
        j : 0.000318841 .. 0.000420268
        k : 0.001 .. 0.001

    Block 3 cell size :
        i : 0.0020578 .. 0.00514451
        j : 0.000940741 .. 0.000940741
        k : 0.001 .. 0.001

    Block 4 cell size :
        i : 0.0020466 .. 0.00511651
        j : 0.00112889 .. 0.000257962
        k : 0.001 .. 0.001


There are no merge patch pairs edges

Writing polyMesh
----------------
Mesh Information
----------------
  boundingBox: (-0.0206 -0.0254 -0.0005) (0.29 0.0254 0.0005)
  nPoints: 25012
  nCells: 12225
  nFaces: 49180
  nInternalFaces: 24170
----------------
Patches
----------------
  patch 0 (start: 24170 size: 30) name: inlet
  patch 1 (start: 24200 size: 57) name: outlet
  patch 2 (start: 24257 size: 223) name: upperWall
  patch 3 (start: 24480 size: 250) name: lowerWall
  patch 4 (start: 24730 size: 24450) name: frontAndBack

End

/*---------------------------------------------------------------------------*\
| =========                 |                                                 |
| \\      /  F ield         | OpenFOAM: The Open Source CFD Toolbox           |
|  \\    /   O peration     | Version:  5.x                                   |
|   \\  /    A nd           | Web:      www.OpenFOAM.org                      |
|    \\/     M anipulation  |                                                 |
\*---------------------------------------------------------------------------*/
Build  : 5.x-197d9d3bf20a
Exec   : simpleFoam
Date   : Apr 08 2018
Time   : 19:27:42
Host   : "platidpxn03"
PID    : 12
I/O    : uncollated
Case   : /shared/lsfadmin/myOpenFoam_run_1523215655117LY1E1/pitzDaily
nProcs : 1
sigFpe : Enabling floating point exception trapping (FOAM_SIGFPE).
fileModificationChecking : Monitoring run-time modified files using timeStampMaster (fileModificationSkew 10)
allowSystemOperations : Allowing user-supplied system call operations

// * * * * * * * * * * * * * * * * * * * * * * * * * * * * * * * * * * * * * //
Create time

Create mesh for time = 0


SIMPLE: convergence criteria
    field p	 tolerance 0.01
    field U	 tolerance 0.001
    field "(k|epsilon|omega|f|v2)"	 tolerance 0.001

Reading field p

Reading field U

Reading/calculating face flux field phi

Selecting incompressible transport model Newtonian
Selecting turbulence model type RAS
Selecting RAS turbulence model kEpsilon
RAS
{
    RASModel        kEpsilon;
    turbulence      on;
    printCoeffs     on;
    Cmu             0.09;
    C1              1.44;
    C2              1.92;
    C3              0;
    sigmak          1;
    sigmaEps        1.3;
}

No MRF models present

No finite volume options present


Starting time loop

streamLine streamlines:
    automatic track length specified through number of sub cycles : 5

Time = 1

smoothSolver:  Solving for Ux, Initial residual = 1, Final residual = 0.0538101, No Iterations 1
smoothSolver:  Solving for Uy, Initial residual = 1, Final residual = 0.030925, No Iterations 2
GAMG:  Solving for p, Initial residual = 1, Final residual = 0.068427, No Iterations 17
time step continuity errors : sum local = 1.19733, global = 0.179883, cumulative = 0.179883
smoothSolver:  Solving for epsilon, Initial residual = 0.23288, Final residual = 0.0114612, No Iterations 3
bounding epsilon, min: -1.98669 max: 1033.28 average: 35.8884
smoothSolver:  Solving for k, Initial residual = 1, Final residual = 0.0454552, No Iterations 3
ExecutionTime = 0.34 s  ClockTime = 1 s

Time = 2

smoothSolver:  Solving for Ux, Initial residual = 0.438346, Final residual = 0.0305667, No Iterations 5
smoothSolver:  Solving for Uy, Initial residual = 0.290564, Final residual = 0.0257883, No Iterations 4
GAMG:  Solving for p, Initial residual = 0.0522496, Final residual = 0.00435174, No Iterations 15
time step continuity errors : sum local = 3.97186, global = 0.123248, cumulative = 0.303131
smoothSolver:  Solving for epsilon, Initial residual = 0.176548, Final residual = 0.010301, No Iterations 3
bounding epsilon, min: -10.4236 max: 23808.9 average: 70.8793
smoothSolver:  Solving for k, Initial residual = 0.436479, Final residual = 0.0394786, No Iterations 3
ExecutionTime = 0.4 s  ClockTime = 1 s

Time = 3

smoothSolver:  Solving for Ux, Initial residual = 0.1242, Final residual = 0.0111197, No Iterations 4
smoothSolver:  Solving for Uy, Initial residual = 0.216892, Final residual = 0.0156466, No Iterations 4
GAMG:  Solving for p, Initial residual = 0.14275, Final residual = 0.0119489, No Iterations 6
time step continuity errors : sum local = 3.34307, global = 0.328383, cumulative = 0.631514
smoothSolver:  Solving for epsilon, Initial residual = 0.175551, Final residual = 0.00809994, No Iterations 2
bounding epsilon, min: -898.39 max: 45796.5 average: 117.634
smoothSolver:  Solving for k, Initial residual = 0.191738, Final residual = 0.0156143, No Iterations 3
ExecutionTime = 0.43 s  ClockTime = 1 s

Time = 4

smoothSolver:  Solving for Ux, Initial residual = 0.0677471, Final residual = 0.00434826, No Iterations 5
smoothSolver:  Solving for Uy, Initial residual = 0.10749, Final residual = 0.00821448, No Iterations 4
GAMG:  Solving for p, Initial residual = 0.1061, Final residual = 0.0105576, No Iterations 6
time step continuity errors : sum local = 1.74649, global = 0.177143, cumulative = 0.808657
smoothSolver:  Solving for epsilon, Initial residual = 0.0706245, Final residual = 0.00578441, No Iterations 2
bounding epsilon, min: -172.106 max: 53276.8 average: 128.968
smoothSolver:  Solving for k, Initial residual = 0.124758, Final residual = 0.0111285, No Iterations 3
ExecutionTime = 0.46 s  ClockTime = 1 s

Time = 5

smoothSolver:  Solving for Ux, Initial residual = 0.0568147, Final residual = 0.00396887, No Iterations 5
smoothSolver:  Solving for Uy, Initial residual = 0.0866067, Final residual = 0.00827391, No Iterations 4
GAMG:  Solving for p, Initial residual = 0.104689, Final residual = 0.00807946, No Iterations 4
time step continuity errors : sum local = 1.02737, global = 0.0926034, cumulative = 0.90126
smoothSolver:  Solving for epsilon, Initial residual = 0.0924311, Final residual = 0.00558155, No Iterations 2
smoothSolver:  Solving for k, Initial residual = 0.0862603, Final residual = 0.00509212, No Iterations 4
ExecutionTime = 0.5 s  ClockTime = 1 s

Time = 6

smoothSolver:  Solving for Ux, Initial residual = 0.0518443, Final residual = 0.0038966, No Iterations 5
smoothSolver:  Solving for Uy, Initial residual = 0.072437, Final residual = 0.00491558, No Iterations 5
GAMG:  Solving for p, Initial residual = 0.0867032, Final residual = 0.00650266, No Iterations 4
time step continuity errors : sum local = 0.769078, global = -0.0579733, cumulative = 0.843287
smoothSolver:  Solving for epsilon, Initial residual = 0.0532318, Final residual = 0.0030113, No Iterations 3
smoothSolver:  Solving for k, Initial residual = 0.068907, Final residual = 0.00474785, No Iterations 4
ExecutionTime = 0.53 s  ClockTime = 1 s

Time = 7

smoothSolver:  Solving for Ux, Initial residual = 0.0479743, Final residual = 0.0038598, No Iterations 5
smoothSolver:  Solving for Uy, Initial residual = 0.0632908, Final residual = 0.00456234, No Iterations 5
GAMG:  Solving for p, Initial residual = 0.0715323, Final residual = 0.0045885, No Iterations 4
time step continuity errors : sum local = 0.540677, global = -0.0673473, cumulative = 0.77594
smoothSolver:  Solving for epsilon, Initial residual = 0.0478442, Final residual = 0.00273446, No Iterations 3
smoothSolver:  Solving for k, Initial residual = 0.0581603, Final residual = 0.00422263, No Iterations 4
ExecutionTime = 0.56 s  ClockTime = 1 s

Time = 8

smoothSolver:  Solving for Ux, Initial residual = 0.0441941, Final residual = 0.00377893, No Iterations 5
smoothSolver:  Solving for Uy, Initial residual = 0.0584274, Final residual = 0.00434069, No Iterations 5
GAMG:  Solving for p, Initial residual = 0.0622691, Final residual = 0.00510351, No Iterations 3
time step continuity errors : sum local = 0.605536, global = 0.0149036, cumulative = 0.790843
smoothSolver:  Solving for epsilon, Initial residual = 0.0408377, Final residual = 0.00275532, No Iterations 3
smoothSolver:  Solving for k, Initial residual = 0.0515683, Final residual = 0.00388887, No Iterations 4
ExecutionTime = 0.59 s  ClockTime = 1 s

Time = 9

smoothSolver:  Solving for Ux, Initial residual = 0.0408709, Final residual = 0.00364297, No Iterations 5
smoothSolver:  Solving for Uy, Initial residual = 0.0551718, Final residual = 0.00421331, No Iterations 5
GAMG:  Solving for p, Initial residual = 0.0568794, Final residual = 0.0047445, No Iterations 3
time step continuity errors : sum local = 0.568955, global = 0.00270241, cumulative = 0.793546
smoothSolver:  Solving for epsilon, Initial residual = 0.0421798, Final residual = 0.0028828, No Iterations 3
smoothSolver:  Solving for k, Initial residual = 0.0481629, Final residual = 0.0037254, No Iterations 4
ExecutionTime = 0.63 s  ClockTime = 1 s

Time = 10

smoothSolver:  Solving for Ux, Initial residual = 0.0385466, Final residual = 0.00351513, No Iterations 5
smoothSolver:  Solving for Uy, Initial residual = 0.0512163, Final residual = 0.0040312, No Iterations 5
GAMG:  Solving for p, Initial residual = 0.0511174, Final residual = 0.00393571, No Iterations 3
time step continuity errors : sum local = 0.483561, global = 0.0136147, cumulative = 0.80716
smoothSolver:  Solving for epsilon, Initial residual = 0.0406448, Final residual = 0.00294772, No Iterations 3
smoothSolver:  Solving for k, Initial residual = 0.0451185, Final residual = 0.00352041, No Iterations 4
ExecutionTime = 0.66 s  ClockTime = 1 s

Time = 11

smoothSolver:  Solving for Ux, Initial residual = 0.0364146, Final residual = 0.00337306, No Iterations 5
smoothSolver:  Solving for Uy, Initial residual = 0.0483305, Final residual = 0.00390661, No Iterations 5
GAMG:  Solving for p, Initial residual = 0.0496514, Final residual = 0.00343158, No Iterations 3
time step continuity errors : sum local = 0.44653, global = 0.0102888, cumulative = 0.817449
smoothSolver:  Solving for epsilon, Initial residual = 0.0396254, Final residual = 0.00300314, No Iterations 3
smoothSolver:  Solving for k, Initial residual = 0.0426102, Final residual = 0.00333603, No Iterations 4
ExecutionTime = 0.69 s  ClockTime = 1 s

Time = 12

smoothSolver:  Solving for Ux, Initial residual = 0.0341638, Final residual = 0.00321402, No Iterations 5
smoothSolver:  Solving for Uy, Initial residual = 0.0465855, Final residual = 0.0038157, No Iterations 5
GAMG:  Solving for p, Initial residual = 0.0479284, Final residual = 0.00340423, No Iterations 3
time step continuity errors : sum local = 0.399795, global = 0.00652487, cumulative = 0.823974
smoothSolver:  Solving for epsilon, Initial residual = 0.0372579, Final residual = 0.00294185, No Iterations 3
smoothSolver:  Solving for k, Initial residual = 0.0408053, Final residual = 0.00321773, No Iterations 4
ExecutionTime = 0.72 s  ClockTime = 1 s

Time = 13

smoothSolver:  Solving for Ux, Initial residual = 0.0322631, Final residual = 0.00304331, No Iterations 5
smoothSolver:  Solving for Uy, Initial residual = 0.0448919, Final residual = 0.00371972, No Iterations 5
GAMG:  Solving for p, Initial residual = 0.0493949, Final residual = 0.00320706, No Iterations 3
time step continuity errors : sum local = 0.383463, global = 0.00577622, cumulative = 0.82975
smoothSolver:  Solving for epsilon, Initial residual = 0.0358384, Final residual = 0.00292063, No Iterations 3
smoothSolver:  Solving for k, Initial residual = 0.0387717, Final residual = 0.00304643, No Iterations 4
ExecutionTime = 0.76 s  ClockTime = 1 s

Time = 14

smoothSolver:  Solving for Ux, Initial residual = 0.030687, Final residual = 0.00288193, No Iterations 5
smoothSolver:  Solving for Uy, Initial residual = 0.0435789, Final residual = 0.00363664, No Iterations 5
GAMG:  Solving for p, Initial residual = 0.0504268, Final residual = 0.00308454, No Iterations 3
time step continuity errors : sum local = 0.37501, global = 0.00323363, cumulative = 0.832984
smoothSolver:  Solving for epsilon, Initial residual = 0.0346848, Final residual = 0.00288311, No Iterations 3
smoothSolver:  Solving for k, Initial residual = 0.0368131, Final residual = 0.00288394, No Iterations 4
ExecutionTime = 0.79 s  ClockTime = 1 s

Time = 15

smoothSolver:  Solving for Ux, Initial residual = 0.028998, Final residual = 0.00272814, No Iterations 5
smoothSolver:  Solving for Uy, Initial residual = 0.04279, Final residual = 0.00355895, No Iterations 5
GAMG:  Solving for p, Initial residual = 0.0482378, Final residual = 0.00318353, No Iterations 3
time step continuity errors : sum local = 0.357247, global = 0.000275628, cumulative = 0.83326
smoothSolver:  Solving for epsilon, Initial residual = 0.0327387, Final residual = 0.00277821, No Iterations 3
smoothSolver:  Solving for k, Initial residual = 0.0349612, Final residual = 0.00273778, No Iterations 4
ExecutionTime = 0.83 s  ClockTime = 1 s

Time = 16

smoothSolver:  Solving for Ux, Initial residual = 0.0272033, Final residual = 0.00258229, No Iterations 5
smoothSolver:  Solving for Uy, Initial residual = 0.0415042, Final residual = 0.00348834, No Iterations 5
GAMG:  Solving for p, Initial residual = 0.0458207, Final residual = 0.00319177, No Iterations 3
time step continuity errors : sum local = 0.345735, global = -0.000350978, cumulative = 0.832909
smoothSolver:  Solving for epsilon, Initial residual = 0.0299029, Final residual = 0.00267962, No Iterations 3
smoothSolver:  Solving for k, Initial residual = 0.0334209, Final residual = 0.00261509, No Iterations 4
ExecutionTime = 0.86 s  ClockTime = 1 s

Time = 17

smoothSolver:  Solving for Ux, Initial residual = 0.0255472, Final residual = 0.00244651, No Iterations 5
smoothSolver:  Solving for Uy, Initial residual = 0.0400476, Final residual = 0.00342807, No Iterations 5
GAMG:  Solving for p, Initial residual = 0.043129, Final residual = 0.0032737, No Iterations 3
time step continuity errors : sum local = 0.345206, global = -0.00241461, cumulative = 0.830494
smoothSolver:  Solving for epsilon, Initial residual = 0.0277871, Final residual = 0.0025317, No Iterations 3
smoothSolver:  Solving for k, Initial residual = 0.0318155, Final residual = 0.00248196, No Iterations 4
ExecutionTime = 0.89 s  ClockTime = 1 s

Time = 18

smoothSolver:  Solving for Ux, Initial residual = 0.0241139, Final residual = 0.00231704, No Iterations 5
smoothSolver:  Solving for Uy, Initial residual = 0.038602, Final residual = 0.00336666, No Iterations 5
GAMG:  Solving for p, Initial residual = 0.0409011, Final residual = 0.00341473, No Iterations 3
time step continuity errors : sum local = 0.344458, global = -0.00461727, cumulative = 0.825877
smoothSolver:  Solving for epsilon, Initial residual = 0.0258516, Final residual = 0.00239125, No Iterations 3
smoothSolver:  Solving for k, Initial residual = 0.0300964, Final residual = 0.00233641, No Iterations 4
ExecutionTime = 0.93 s  ClockTime = 1 s

Time = 19

smoothSolver:  Solving for Ux, Initial residual = 0.0228265, Final residual = 0.00219297, No Iterations 5
smoothSolver:  Solving for Uy, Initial residual = 0.0370724, Final residual = 0.00330216, No Iterations 5
GAMG:  Solving for p, Initial residual = 0.0394323, Final residual = 0.00341666, No Iterations 3
time step continuity errors : sum local = 0.338777, global = -0.00548394, cumulative = 0.820393
smoothSolver:  Solving for epsilon, Initial residual = 0.0243679, Final residual = 0.0022624, No Iterations 3
smoothSolver:  Solving for k, Initial residual = 0.0286813, Final residual = 0.0022249, No Iterations 4
ExecutionTime = 0.96 s  ClockTime = 1 s

Time = 20

smoothSolver:  Solving for Ux, Initial residual = 0.0216061, Final residual = 0.00207259, No Iterations 5
smoothSolver:  Solving for Uy, Initial residual = 0.0358327, Final residual = 0.00324083, No Iterations 5
GAMG:  Solving for p, Initial residual = 0.0375889, Final residual = 0.00345718, No Iterations 3
time step continuity errors : sum local = 0.3291, global = -0.00644747, cumulative = 0.813945
smoothSolver:  Solving for epsilon, Initial residual = 0.02284, Final residual = 0.00211158, No Iterations 3
smoothSolver:  Solving for k, Initial residual = 0.0271237, Final residual = 0.00209556, No Iterations 4
ExecutionTime = 0.99 s  ClockTime = 1 s

Time = 21

smoothSolver:  Solving for Ux, Initial residual = 0.0203924, Final residual = 0.00195672, No Iterations 5
smoothSolver:  Solving for Uy, Initial residual = 0.0348116, Final residual = 0.00318567, No Iterations 5
GAMG:  Solving for p, Initial residual = 0.0361442, Final residual = 0.00341289, No Iterations 3
time step continuity errors : sum local = 0.315417, global = -0.00795302, cumulative = 0.805992
smoothSolver:  Solving for epsilon, Initial residual = 0.0217929, Final residual = 0.00201043, No Iterations 3
smoothSolver:  Solving for k, Initial residual = 0.0260339, Final residual = 0.0020052, No Iterations 4
ExecutionTime = 1.02 s  ClockTime = 2 s

Time = 22

smoothSolver:  Solving for Ux, Initial residual = 0.0192145, Final residual = 0.00184694, No Iterations 5
smoothSolver:  Solving for Uy, Initial residual = 0.0338145, Final residual = 0.00312912, No Iterations 5
GAMG:  Solving for p, Initial residual = 0.0346666, Final residual = 0.0033282, No Iterations 3
time step continuity errors : sum local = 0.299372, global = -0.00863525, cumulative = 0.797357
smoothSolver:  Solving for epsilon, Initial residual = 0.0205558, Final residual = 0.00188065, No Iterations 3
smoothSolver:  Solving for k, Initial residual = 0.025091, Final residual = 0.00192518, No Iterations 4
ExecutionTime = 1.05 s  ClockTime = 2 s

Time = 23

smoothSolver:  Solving for Ux, Initial residual = 0.0181107, Final residual = 0.00174189, No Iterations 5
smoothSolver:  Solving for Uy, Initial residual = 0.0328179, Final residual = 0.00307115, No Iterations 5
GAMG:  Solving for p, Initial residual = 0.0336537, Final residual = 0.00328742, No Iterations 3
time step continuity errors : sum local = 0.287812, global = -0.0103916, cumulative = 0.786965
smoothSolver:  Solving for epsilon, Initial residual = 0.0194852, Final residual = 0.00178123, No Iterations 3
smoothSolver:  Solving for k, Initial residual = 0.0239509, Final residual = 0.00183129, No Iterations 4
ExecutionTime = 1.08 s  ClockTime = 2 s

Time = 24

smoothSolver:  Solving for Ux, Initial residual = 0.0170858, Final residual = 0.00164247, No Iterations 5
smoothSolver:  Solving for Uy, Initial residual = 0.0316562, Final residual = 0.00301121, No Iterations 5
GAMG:  Solving for p, Initial residual = 0.0314124, Final residual = 0.00223958, No Iterations 4
time step continuity errors : sum local = 0.188661, global = 0.0278192, cumulative = 0.814785
smoothSolver:  Solving for epsilon, Initial residual = 0.018547, Final residual = 0.00167389, No Iterations 3
smoothSolver:  Solving for k, Initial residual = 0.0230769, Final residual = 0.00175766, No Iterations 4
ExecutionTime = 1.12 s  ClockTime = 2 s

Time = 25

smoothSolver:  Solving for Ux, Initial residual = 0.0160997, Final residual = 0.00154201, No Iterations 5
smoothSolver:  Solving for Uy, Initial residual = 0.0308181, Final residual = 0.00294772, No Iterations 5
GAMG:  Solving for p, Initial residual = 0.031401, Final residual = 0.00279307, No Iterations 3
time step continuity errors : sum local = 0.229896, global = -0.0115716, cumulative = 0.803213
smoothSolver:  Solving for epsilon, Initial residual = 0.0176642, Final residual = 0.00157039, No Iterations 3
smoothSolver:  Solving for k, Initial residual = 0.0222644, Final residual = 0.00169501, No Iterations 4
ExecutionTime = 1.16 s  ClockTime = 2 s

Time = 26

smoothSolver:  Solving for Ux, Initial residual = 0.0152132, Final residual = 0.00146055, No Iterations 5
smoothSolver:  Solving for Uy, Initial residual = 0.0298816, Final residual = 0.00288063, No Iterations 5
GAMG:  Solving for p, Initial residual = 0.0311161, Final residual = 0.00207435, No Iterations 4
time step continuity errors : sum local = 0.168232, global = 0.0259812, cumulative = 0.829194
smoothSolver:  Solving for epsilon, Initial residual = 0.0168136, Final residual = 0.00148904, No Iterations 3
smoothSolver:  Solving for k, Initial residual = 0.0214731, Final residual = 0.00162018, No Iterations 4
ExecutionTime = 1.19 s  ClockTime = 2 s

Time = 27

smoothSolver:  Solving for Ux, Initial residual = 0.0143018, Final residual = 0.00136816, No Iterations 5
smoothSolver:  Solving for Uy, Initial residual = 0.0290481, Final residual = 0.00280463, No Iterations 5
GAMG:  Solving for p, Initial residual = 0.029408, Final residual = 0.00206356, No Iterations 4
time step continuity errors : sum local = 0.160983, global = 0.0261686, cumulative = 0.855363
smoothSolver:  Solving for epsilon, Initial residual = 0.0160785, Final residual = 0.00141709, No Iterations 3
smoothSolver:  Solving for k, Initial residual = 0.0207939, Final residual = 0.00156414, No Iterations 4
ExecutionTime = 1.22 s  ClockTime = 2 s

Time = 28

smoothSolver:  Solving for Ux, Initial residual = 0.0134332, Final residual = 0.00128899, No Iterations 5
smoothSolver:  Solving for Uy, Initial residual = 0.0280504, Final residual = 0.00273823, No Iterations 5
GAMG:  Solving for p, Initial residual = 0.0282843, Final residual = 0.00224864, No Iterations 4
time step continuity errors : sum local = 0.171295, global = 0.0281711, cumulative = 0.883534
smoothSolver:  Solving for epsilon, Initial residual = 0.015344, Final residual = 0.00135023, No Iterations 3
smoothSolver:  Solving for k, Initial residual = 0.0200707, Final residual = 0.00149968, No Iterations 4
ExecutionTime = 1.25 s  ClockTime = 2 s

Time = 29

smoothSolver:  Solving for Ux, Initial residual = 0.0126491, Final residual = 0.00121197, No Iterations 5
smoothSolver:  Solving for Uy, Initial residual = 0.027328, Final residual = 0.0026621, No Iterations 5
GAMG:  Solving for p, Initial residual = 0.0304772, Final residual = 0.00234165, No Iterations 4
time step continuity errors : sum local = 0.175348, global = 0.0294145, cumulative = 0.912948
smoothSolver:  Solving for epsilon, Initial residual = 0.0147045, Final residual = 0.00129154, No Iterations 3
smoothSolver:  Solving for k, Initial residual = 0.0194173, Final residual = 0.00144685, No Iterations 4
ExecutionTime = 1.29 s  ClockTime = 2 s

Time = 30

smoothSolver:  Solving for Ux, Initial residual = 0.0118572, Final residual = 0.00113801, No Iterations 5
smoothSolver:  Solving for Uy, Initial residual = 0.0265035, Final residual = 0.002592, No Iterations 5
GAMG:  Solving for p, Initial residual = 0.0292627, Final residual = 0.00234019, No Iterations 4
time step continuity errors : sum local = 0.170811, global = 0.0292432, cumulative = 0.942192
smoothSolver:  Solving for epsilon, Initial residual = 0.0140096, Final residual = 0.00123393, No Iterations 3
smoothSolver:  Solving for k, Initial residual = 0.0187212, Final residual = 0.00139057, No Iterations 4
ExecutionTime = 1.33 s  ClockTime = 2 s

Time = 31

smoothSolver:  Solving for Ux, Initial residual = 0.0111125, Final residual = 0.00106898, No Iterations 5
smoothSolver:  Solving for Uy, Initial residual = 0.0255834, Final residual = 0.00252396, No Iterations 5
GAMG:  Solving for p, Initial residual = 0.0295348, Final residual = 0.00237295, No Iterations 4
time step continuity errors : sum local = 0.168487, global = 0.0303958, cumulative = 0.972588
smoothSolver:  Solving for epsilon, Initial residual = 0.0133849, Final residual = 0.00117587, No Iterations 3
smoothSolver:  Solving for k, Initial residual = 0.0180458, Final residual = 0.00133992, No Iterations 4
ExecutionTime = 1.36 s  ClockTime = 2 s

Time = 32

smoothSolver:  Solving for Ux, Initial residual = 0.0104324, Final residual = 0.00100458, No Iterations 5
smoothSolver:  Solving for Uy, Initial residual = 0.0248724, Final residual = 0.00245655, No Iterations 5
GAMG:  Solving for p, Initial residual = 0.0303713, Final residual = 0.00232355, No Iterations 4
time step continuity errors : sum local = 0.161234, global = 0.0294747, cumulative = 1.00206
smoothSolver:  Solving for epsilon, Initial residual = 0.0128177, Final residual = 0.00113052, No Iterations 3
smoothSolver:  Solving for k, Initial residual = 0.0174674, Final residual = 0.00128888, No Iterations 4
ExecutionTime = 1.39 s  ClockTime = 2 s

Time = 33

smoothSolver:  Solving for Ux, Initial residual = 0.00976996, Final residual = 0.000943074, No Iterations 5
smoothSolver:  Solving for Uy, Initial residual = 0.0241046, Final residual = 0.00239157, No Iterations 5
GAMG:  Solving for p, Initial residual = 0.0291612, Final residual = 0.00225094, No Iterations 4
time step continuity errors : sum local = 0.152687, global = 0.0281373, cumulative = 1.0302
smoothSolver:  Solving for epsilon, Initial residual = 0.0123248, Final residual = 0.0010884, No Iterations 3
smoothSolver:  Solving for k, Initial residual = 0.0169214, Final residual = 0.00125095, No Iterations 4
ExecutionTime = 1.42 s  ClockTime = 2 s

Time = 34

smoothSolver:  Solving for Ux, Initial residual = 0.00915236, Final residual = 0.000886457, No Iterations 5
smoothSolver:  Solving for Uy, Initial residual = 0.0234514, Final residual = 0.00233364, No Iterations 5
GAMG:  Solving for p, Initial residual = 0.0282693, Final residual = 0.00203609, No Iterations 4
time step continuity errors : sum local = 0.134738, global = 0.0229301, cumulative = 1.05313
smoothSolver:  Solving for epsilon, Initial residual = 0.0118539, Final residual = 0.00104507, No Iterations 3
smoothSolver:  Solving for k, Initial residual = 0.0164381, Final residual = 0.00120961, No Iterations 4
ExecutionTime = 1.46 s  ClockTime = 2 s

Time = 35

smoothSolver:  Solving for Ux, Initial residual = 0.00860316, Final residual = 0.000835678, No Iterations 5
smoothSolver:  Solving for Uy, Initial residual = 0.0227456, Final residual = 0.00147024, No Iterations 6
GAMG:  Solving for p, Initial residual = 0.0279167, Final residual = 0.0021278, No Iterations 4
time step continuity errors : sum local = 0.138636, global = 0.0250819, cumulative = 1.07821
smoothSolver:  Solving for epsilon, Initial residual = 0.0113373, Final residual = 0.00100063, No Iterations 3
smoothSolver:  Solving for k, Initial residual = 0.0158799, Final residual = 0.00116699, No Iterations 4
ExecutionTime = 1.5 s  ClockTime = 2 s

Time = 36

smoothSolver:  Solving for Ux, Initial residual = 0.00810103, Final residual = 0.000791127, No Iterations 5
smoothSolver:  Solving for Uy, Initial residual = 0.0217902, Final residual = 0.00141979, No Iterations 6
GAMG:  Solving for p, Initial residual = 0.0262842, Final residual = 0.00192916, No Iterations 4
time step continuity errors : sum local = 0.122586, global = 0.0200226, cumulative = 1.09823
smoothSolver:  Solving for epsilon, Initial residual = 0.0109204, Final residual = 0.000974051, No Iterations 3
smoothSolver:  Solving for k, Initial residual = 0.0154363, Final residual = 0.00113862, No Iterations 4
ExecutionTime = 1.53 s  ClockTime = 2 s

Time = 37

smoothSolver:  Solving for Ux, Initial residual = 0.00764055, Final residual = 0.000748369, No Iterations 5
smoothSolver:  Solving for Uy, Initial residual = 0.0212077, Final residual = 0.00138926, No Iterations 6
GAMG:  Solving for p, Initial residual = 0.027089, Final residual = 0.00201531, No Iterations 4
time step continuity errors : sum local = 0.124922, global = 0.0218365, cumulative = 1.12007
smoothSolver:  Solving for epsilon, Initial residual = 0.0106004, Final residual = 0.000939731, No Iterations 3
smoothSolver:  Solving for k, Initial residual = 0.0148974, Final residual = 0.00109151, No Iterations 4
ExecutionTime = 1.56 s  ClockTime = 2 s

Time = 38

smoothSolver:  Solving for Ux, Initial residual = 0.00720013, Final residual = 0.000706812, No Iterations 5
smoothSolver:  Solving for Uy, Initial residual = 0.0206304, Final residual = 0.00136489, No Iterations 6
GAMG:  Solving for p, Initial residual = 0.0282276, Final residual = 0.00258123, No Iterations 3
time step continuity errors : sum local = 0.158492, global = -0.0264889, cumulative = 1.09358
smoothSolver:  Solving for epsilon, Initial residual = 0.0102168, Final residual = 0.000905417, No Iterations 3
smoothSolver:  Solving for k, Initial residual = 0.014383, Final residual = 0.00105541, No Iterations 4
ExecutionTime = 1.59 s  ClockTime = 2 s

Time = 39

smoothSolver:  Solving for Ux, Initial residual = 0.00682334, Final residual = 0.00067312, No Iterations 5
smoothSolver:  Solving for Uy, Initial residual = 0.0202374, Final residual = 0.00134227, No Iterations 6
GAMG:  Solving for p, Initial residual = 0.0268228, Final residual = 0.00250326, No Iterations 3
time step continuity errors : sum local = 0.148811, global = 0.0134157, cumulative = 1.107
smoothSolver:  Solving for epsilon, Initial residual = 0.00979951, Final residual = 0.000880967, No Iterations 3
smoothSolver:  Solving for k, Initial residual = 0.0139138, Final residual = 0.00101806, No Iterations 4
ExecutionTime = 1.62 s  ClockTime = 2 s

Time = 40

smoothSolver:  Solving for Ux, Initial residual = 0.00642981, Final residual = 0.000637017, No Iterations 5
smoothSolver:  Solving for Uy, Initial residual = 0.01984, Final residual = 0.00132905, No Iterations 6
GAMG:  Solving for p, Initial residual = 0.0253503, Final residual = 0.00242002, No Iterations 3
time step continuity errors : sum local = 0.140973, global = -0.012639, cumulative = 1.09436
smoothSolver:  Solving for epsilon, Initial residual = 0.00944739, Final residual = 0.000843153, No Iterations 3
smoothSolver:  Solving for k, Initial residual = 0.0134827, Final residual = 0.000981951, No Iterations 4
ExecutionTime = 1.66 s  ClockTime = 2 s

Time = 41

smoothSolver:  Solving for Ux, Initial residual = 0.00611172, Final residual = 0.000607239, No Iterations 5
smoothSolver:  Solving for Uy, Initial residual = 0.0195778, Final residual = 0.00131887, No Iterations 6
GAMG:  Solving for p, Initial residual = 0.0272247, Final residual = 0.00200291, No Iterations 3
time step continuity errors : sum local = 0.115662, global = 0.0113192, cumulative = 1.10568
smoothSolver:  Solving for epsilon, Initial residual = 0.0090978, Final residual = 0.000807792, No Iterations 3
smoothSolver:  Solving for k, Initial residual = 0.0129871, Final residual = 0.000948164, No Iterations 4
ExecutionTime = 1.69 s  ClockTime = 2 s

Time = 42

smoothSolver:  Solving for Ux, Initial residual = 0.00582479, Final residual = 0.000582092, No Iterations 5
smoothSolver:  Solving for Uy, Initial residual = 0.0192569, Final residual = 0.00130606, No Iterations 6
GAMG:  Solving for p, Initial residual = 0.024983, Final residual = 0.00216445, No Iterations 3
time step continuity errors : sum local = 0.122435, global = -0.000987323, cumulative = 1.10469
smoothSolver:  Solving for epsilon, Initial residual = 0.00871174, Final residual = 0.000774588, No Iterations 3
smoothSolver:  Solving for k, Initial residual = 0.0125413, Final residual = 0.000910144, No Iterations 4
ExecutionTime = 1.72 s  ClockTime = 2 s

Time = 43

smoothSolver:  Solving for Ux, Initial residual = 0.00555443, Final residual = 0.000356969, No Iterations 6
smoothSolver:  Solving for Uy, Initial residual = 0.0189928, Final residual = 0.00129759, No Iterations 6
GAMG:  Solving for p, Initial residual = 0.0256045, Final residual = 0.00216167, No Iterations 3
time step continuity errors : sum local = 0.120047, global = 0.00823467, cumulative = 1.11292
smoothSolver:  Solving for epsilon, Initial residual = 0.00847633, Final residual = 0.00074614, No Iterations 3
smoothSolver:  Solving for k, Initial residual = 0.0120973, Final residual = 0.000876607, No Iterations 4
ExecutionTime = 1.76 s  ClockTime = 2 s

Time = 44

smoothSolver:  Solving for Ux, Initial residual = 0.00530477, Final residual = 0.000341088, No Iterations 6
smoothSolver:  Solving for Uy, Initial residual = 0.0189204, Final residual = 0.00130429, No Iterations 6
GAMG:  Solving for p, Initial residual = 0.0269897, Final residual = 0.00197177, No Iterations 3
time step continuity errors : sum local = 0.109266, global = 0.00546929, cumulative = 1.11839
smoothSolver:  Solving for epsilon, Initial residual = 0.00815982, Final residual = 0.000714113, No Iterations 3
smoothSolver:  Solving for k, Initial residual = 0.0116949, Final residual = 0.000845834, No Iterations 4
ExecutionTime = 1.79 s  ClockTime = 2 s

Time = 45

smoothSolver:  Solving for Ux, Initial residual = 0.00508758, Final residual = 0.000329103, No Iterations 6
smoothSolver:  Solving for Uy, Initial residual = 0.0189335, Final residual = 0.00130504, No Iterations 6
GAMG:  Solving for p, Initial residual = 0.0243083, Final residual = 0.00207796, No Iterations 3
time step continuity errors : sum local = 0.112197, global = 0.0104997, cumulative = 1.12889
smoothSolver:  Solving for epsilon, Initial residual = 0.00781292, Final residual = 0.000688247, No Iterations 3
smoothSolver:  Solving for k, Initial residual = 0.0112966, Final residual = 0.000815357, No Iterations 4
ExecutionTime = 1.82 s  ClockTime = 2 s

Time = 46

smoothSolver:  Solving for Ux, Initial residual = 0.00488933, Final residual = 0.000317903, No Iterations 6
smoothSolver:  Solving for Uy, Initial residual = 0.0187731, Final residual = 0.00130718, No Iterations 6
GAMG:  Solving for p, Initial residual = 0.0239056, Final residual = 0.00187383, No Iterations 3
time step continuity errors : sum local = 0.0998282, global = 0.0143704, cumulative = 1.14326
smoothSolver:  Solving for epsilon, Initial residual = 0.00761029, Final residual = 0.00065587, No Iterations 3
smoothSolver:  Solving for k, Initial residual = 0.0109005, Final residual = 0.000785017, No Iterations 4
ExecutionTime = 1.86 s  ClockTime = 2 s

Time = 47

smoothSolver:  Solving for Ux, Initial residual = 0.00473656, Final residual = 0.000308238, No Iterations 6
smoothSolver:  Solving for Uy, Initial residual = 0.0186832, Final residual = 0.00130886, No Iterations 6
GAMG:  Solving for p, Initial residual = 0.0258473, Final residual = 0.00184967, No Iterations 3
time step continuity errors : sum local = 0.0987296, global = 0.0167827, cumulative = 1.16005
smoothSolver:  Solving for epsilon, Initial residual = 0.00741243, Final residual = 0.000626403, No Iterations 3
smoothSolver:  Solving for k, Initial residual = 0.0105204, Final residual = 0.000762523, No Iterations 4
ExecutionTime = 1.89 s  ClockTime = 2 s

Time = 48

smoothSolver:  Solving for Ux, Initial residual = 0.00461563, Final residual = 0.000301526, No Iterations 6
smoothSolver:  Solving for Uy, Initial residual = 0.0187012, Final residual = 0.00130669, No Iterations 6
GAMG:  Solving for p, Initial residual = 0.0227667, Final residual = 0.00191614, No Iterations 3
time step continuity errors : sum local = 0.099721, global = 0.0171658, cumulative = 1.17721
smoothSolver:  Solving for epsilon, Initial residual = 0.00711743, Final residual = 0.000602386, No Iterations 3
smoothSolver:  Solving for k, Initial residual = 0.0101138, Final residual = 0.000724229, No Iterations 4
ExecutionTime = 1.93 s  ClockTime = 2 s

Time = 49

smoothSolver:  Solving for Ux, Initial residual = 0.00448818, Final residual = 0.000294633, No Iterations 6
smoothSolver:  Solving for Uy, Initial residual = 0.0186116, Final residual = 0.00131096, No Iterations 6
GAMG:  Solving for p, Initial residual = 0.022666, Final residual = 0.00182017, No Iterations 3
time step continuity errors : sum local = 0.0939184, global = 0.0163653, cumulative = 1.19358
smoothSolver:  Solving for epsilon, Initial residual = 0.00693012, Final residual = 0.000577336, No Iterations 3
smoothSolver:  Solving for k, Initial residual = 0.00978491, Final residual = 0.000696452, No Iterations 4
ExecutionTime = 1.96 s  ClockTime = 2 s

Time = 50

smoothSolver:  Solving for Ux, Initial residual = 0.004396, Final residual = 0.000289024, No Iterations 6
smoothSolver:  Solving for Uy, Initial residual = 0.0185703, Final residual = 0.00131555, No Iterations 6
GAMG:  Solving for p, Initial residual = 0.0243002, Final residual = 0.00170314, No Iterations 3
time step continuity errors : sum local = 0.0882739, global = 0.0153625, cumulative = 1.20894
smoothSolver:  Solving for epsilon, Initial residual = 0.00671674, Final residual = 0.000551472, No Iterations 3
smoothSolver:  Solving for k, Initial residual = 0.00949191, Final residual = 0.00067977, No Iterations 4
ExecutionTime = 1.99 s  ClockTime = 2 s

Time = 51

smoothSolver:  Solving for Ux, Initial residual = 0.00433469, Final residual = 0.000285514, No Iterations 6
smoothSolver:  Solving for Uy, Initial residual = 0.0186687, Final residual = 0.00131769, No Iterations 6
GAMG:  Solving for p, Initial residual = 0.0219471, Final residual = 0.00170105, No Iterations 3
time step continuity errors : sum local = 0.086307, global = 0.0151204, cumulative = 1.22406
smoothSolver:  Solving for epsilon, Initial residual = 0.00649218, Final residual = 0.00052995, No Iterations 3
smoothSolver:  Solving for k, Initial residual = 0.00916431, Final residual = 0.000656394, No Iterations 4
ExecutionTime = 2.03 s  ClockTime = 3 s

Time = 52

smoothSolver:  Solving for Ux, Initial residual = 0.00425904, Final residual = 0.000281558, No Iterations 6
smoothSolver:  Solving for Uy, Initial residual = 0.0186432, Final residual = 0.00132348, No Iterations 6
GAMG:  Solving for p, Initial residual = 0.0218551, Final residual = 0.00161337, No Iterations 3
time step continuity errors : sum local = 0.0814913, global = 0.0136672, cumulative = 1.23773
smoothSolver:  Solving for epsilon, Initial residual = 0.00632647, Final residual = 0.000507736, No Iterations 3
smoothSolver:  Solving for k, Initial residual = 0.0088589, Final residual = 0.000635324, No Iterations 4
ExecutionTime = 2.06 s  ClockTime = 3 s

Time = 53

smoothSolver:  Solving for Ux, Initial residual = 0.00420459, Final residual = 0.000278047, No Iterations 6
smoothSolver:  Solving for Uy, Initial residual = 0.0186262, Final residual = 0.00132935, No Iterations 6
GAMG:  Solving for p, Initial residual = 0.0224715, Final residual = 0.00159303, No Iterations 3
time step continuity errors : sum local = 0.0809028, global = 0.0150955, cumulative = 1.25282
smoothSolver:  Solving for epsilon, Initial residual = 0.00620735, Final residual = 0.000493171, No Iterations 3
smoothSolver:  Solving for k, Initial residual = 0.00861196, Final residual = 0.000615385, No Iterations 4
ExecutionTime = 2.09 s  ClockTime = 3 s

Time = 54

smoothSolver:  Solving for Ux, Initial residual = 0.00417182, Final residual = 0.000275716, No Iterations 6
smoothSolver:  Solving for Uy, Initial residual = 0.0187132, Final residual = 0.00133161, No Iterations 6
GAMG:  Solving for p, Initial residual = 0.0213649, Final residual = 0.00144859, No Iterations 3
time step continuity errors : sum local = 0.0722499, global = 0.0133378, cumulative = 1.26616
smoothSolver:  Solving for epsilon, Initial residual = 0.00602795, Final residual = 0.000474502, No Iterations 3
smoothSolver:  Solving for k, Initial residual = 0.00831938, Final residual = 0.000592302, No Iterations 4
ExecutionTime = 2.12 s  ClockTime = 3 s

Time = 55

smoothSolver:  Solving for Ux, Initial residual = 0.00411776, Final residual = 0.000272753, No Iterations 6
smoothSolver:  Solving for Uy, Initial residual = 0.018694, Final residual = 0.00133739, No Iterations 6
GAMG:  Solving for p, Initial residual = 0.0209759, Final residual = 0.00167976, No Iterations 3
time step continuity errors : sum local = 0.0836808, global = 0.0174033, cumulative = 1.28356
smoothSolver:  Solving for epsilon, Initial residual = 0.00585439, Final residual = 0.000456266, No Iterations 3
smoothSolver:  Solving for k, Initial residual = 0.00810203, Final residual = 0.000578245, No Iterations 4
ExecutionTime = 2.16 s  ClockTime = 3 s

Time = 56

smoothSolver:  Solving for Ux, Initial residual = 0.00407582, Final residual = 0.000270407, No Iterations 6
smoothSolver:  Solving for Uy, Initial residual = 0.018665, Final residual = 0.00134168, No Iterations 6
GAMG:  Solving for p, Initial residual = 0.0205818, Final residual = 0.0016952, No Iterations 3
time step continuity errors : sum local = 0.0841571, global = 0.00776768, cumulative = 1.29133
smoothSolver:  Solving for epsilon, Initial residual = 0.00581825, Final residual = 0.000445246, No Iterations 3
smoothSolver:  Solving for k, Initial residual = 0.00783352, Final residual = 0.000556127, No Iterations 4
ExecutionTime = 2.2 s  ClockTime = 3 s

Time = 57

smoothSolver:  Solving for Ux, Initial residual = 0.00406421, Final residual = 0.000267798, No Iterations 6
smoothSolver:  Solving for Uy, Initial residual = 0.0188172, Final residual = 0.00134879, No Iterations 6
GAMG:  Solving for p, Initial residual = 0.0250304, Final residual = 0.00145083, No Iterations 3
time step continuity errors : sum local = 0.0723943, global = 0.0188404, cumulative = 1.31017
smoothSolver:  Solving for epsilon, Initial residual = 0.0056857, Final residual = 0.000428156, No Iterations 3
smoothSolver:  Solving for k, Initial residual = 0.00757999, Final residual = 0.000536455, No Iterations 4
ExecutionTime = 2.23 s  ClockTime = 3 s

Time = 58

smoothSolver:  Solving for Ux, Initial residual = 0.00403567, Final residual = 0.000266754, No Iterations 6
smoothSolver:  Solving for Uy, Initial residual = 0.0188476, Final residual = 0.00134834, No Iterations 6
GAMG:  Solving for p, Initial residual = 0.0219783, Final residual = 0.00174784, No Iterations 3
time step continuity errors : sum local = 0.0857201, global = -0.0113339, cumulative = 1.29884
smoothSolver:  Solving for epsilon, Initial residual = 0.00550852, Final residual = 0.000418702, No Iterations 3
smoothSolver:  Solving for k, Initial residual = 0.00738755, Final residual = 0.000522507, No Iterations 4
ExecutionTime = 2.26 s  ClockTime = 3 s

Time = 59

smoothSolver:  Solving for Ux, Initial residual = 0.0039911, Final residual = 0.000263935, No Iterations 6
smoothSolver:  Solving for Uy, Initial residual = 0.0188152, Final residual = 0.0013555, No Iterations 6
GAMG:  Solving for p, Initial residual = 0.0213393, Final residual = 0.00177273, No Iterations 3
time step continuity errors : sum local = 0.0858788, global = 0.01486, cumulative = 1.3137
smoothSolver:  Solving for epsilon, Initial residual = 0.00543301, Final residual = 0.000409882, No Iterations 3
smoothSolver:  Solving for k, Initial residual = 0.00720714, Final residual = 0.000512472, No Iterations 4
ExecutionTime = 2.29 s  ClockTime = 3 s

Time = 60

smoothSolver:  Solving for Ux, Initial residual = 0.00396332, Final residual = 0.000262269, No Iterations 6
smoothSolver:  Solving for Uy, Initial residual = 0.0188551, Final residual = 0.00135911, No Iterations 6
GAMG:  Solving for p, Initial residual = 0.021696, Final residual = 0.00183656, No Iterations 3
time step continuity errors : sum local = 0.0882553, global = -0.00407491, cumulative = 1.30962
smoothSolver:  Solving for epsilon, Initial residual = 0.00534914, Final residual = 0.000400365, No Iterations 3
smoothSolver:  Solving for k, Initial residual = 0.00700768, Final residual = 0.000498186, No Iterations 4
ExecutionTime = 2.33 s  ClockTime = 3 s

Time = 61

smoothSolver:  Solving for Ux, Initial residual = 0.00392715, Final residual = 0.000259219, No Iterations 6
smoothSolver:  Solving for Uy, Initial residual = 0.0190654, Final residual = 0.00137241, No Iterations 6
GAMG:  Solving for p, Initial residual = 0.0215115, Final residual = 0.00151169, No Iterations 3
time step continuity errors : sum local = 0.0731527, global = 0.0145779, cumulative = 1.3242
smoothSolver:  Solving for epsilon, Initial residual = 0.00525528, Final residual = 0.000392361, No Iterations 3
smoothSolver:  Solving for k, Initial residual = 0.00682994, Final residual = 0.000485879, No Iterations 4
ExecutionTime = 2.37 s  ClockTime = 3 s

Time = 62

smoothSolver:  Solving for Ux, Initial residual = 0.00390387, Final residual = 0.00025873, No Iterations 6
smoothSolver:  Solving for Uy, Initial residual = 0.0190087, Final residual = 0.00137558, No Iterations 6
GAMG:  Solving for p, Initial residual = 0.0195111, Final residual = 0.00107865, No Iterations 4
time step continuity errors : sum local = 0.0517842, global = -0.00427945, cumulative = 1.31992
smoothSolver:  Solving for epsilon, Initial residual = 0.00513739, Final residual = 0.000385907, No Iterations 3
smoothSolver:  Solving for k, Initial residual = 0.00667264, Final residual = 0.000475478, No Iterations 4
ExecutionTime = 2.4 s  ClockTime = 3 s

Time = 63

smoothSolver:  Solving for Ux, Initial residual = 0.00386875, Final residual = 0.000255729, No Iterations 6
smoothSolver:  Solving for Uy, Initial residual = 0.0190678, Final residual = 0.00138935, No Iterations 6
GAMG:  Solving for p, Initial residual = 0.0199132, Final residual = 0.0014875, No Iterations 3
time step continuity errors : sum local = 0.0703423, global = 0.0130393, cumulative = 1.33296
smoothSolver:  Solving for epsilon, Initial residual = 0.00506664, Final residual = 0.000382469, No Iterations 3
smoothSolver:  Solving for k, Initial residual = 0.00653481, Final residual = 0.000466703, No Iterations 4
ExecutionTime = 2.43 s  ClockTime = 3 s

Time = 64

smoothSolver:  Solving for Ux, Initial residual = 0.00385468, Final residual = 0.000255443, No Iterations 6
smoothSolver:  Solving for Uy, Initial residual = 0.019039, Final residual = 0.00139189, No Iterations 6
GAMG:  Solving for p, Initial residual = 0.0200158, Final residual = 0.00175464, No Iterations 3
time step continuity errors : sum local = 0.083207, global = -0.0127285, cumulative = 1.32023
smoothSolver:  Solving for epsilon, Initial residual = 0.00499258, Final residual = 0.000380067, No Iterations 3
smoothSolver:  Solving for k, Initial residual = 0.00639116, Final residual = 0.00046065, No Iterations 4
ExecutionTime = 2.46 s  ClockTime = 3 s

Time = 65

smoothSolver:  Solving for Ux, Initial residual = 0.00383728, Final residual = 0.000253156, No Iterations 6
smoothSolver:  Solving for Uy, Initial residual = 0.0191574, Final residual = 0.0014016, No Iterations 6
GAMG:  Solving for p, Initial residual = 0.0195659, Final residual = 0.00178078, No Iterations 3
time step continuity errors : sum local = 0.0839437, global = 0.0138609, cumulative = 1.33409
smoothSolver:  Solving for epsilon, Initial residual = 0.00492951, Final residual = 0.000375052, No Iterations 3
smoothSolver:  Solving for k, Initial residual = 0.00625554, Final residual = 0.000451039, No Iterations 4
ExecutionTime = 2.5 s  ClockTime = 3 s

Time = 66

smoothSolver:  Solving for Ux, Initial residual = 0.00381608, Final residual = 0.000252274, No Iterations 6
smoothSolver:  Solving for Uy, Initial residual = 0.0192436, Final residual = 0.0014114, No Iterations 6
GAMG:  Solving for p, Initial residual = 0.020071, Final residual = 0.00187707, No Iterations 3
time step continuity errors : sum local = 0.0879577, global = -0.0121333, cumulative = 1.32196
smoothSolver:  Solving for epsilon, Initial residual = 0.00486928, Final residual = 0.000372008, No Iterations 3
smoothSolver:  Solving for k, Initial residual = 0.00615063, Final residual = 0.000447108, No Iterations 4
ExecutionTime = 2.54 s  ClockTime = 3 s

Time = 67

smoothSolver:  Solving for Ux, Initial residual = 0.00379406, Final residual = 0.000250218, No Iterations 6
smoothSolver:  Solving for Uy, Initial residual = 0.0193947, Final residual = 0.00142286, No Iterations 6
GAMG:  Solving for p, Initial residual = 0.0192933, Final residual = 0.00163837, No Iterations 3
time step continuity errors : sum local = 0.076577, global = 0.0135494, cumulative = 1.33551
smoothSolver:  Solving for epsilon, Initial residual = 0.00481463, Final residual = 0.000373323, No Iterations 3
smoothSolver:  Solving for k, Initial residual = 0.00603518, Final residual = 0.000439934, No Iterations 4
ExecutionTime = 2.57 s  ClockTime = 3 s

Time = 68

smoothSolver:  Solving for Ux, Initial residual = 0.00377305, Final residual = 0.000249799, No Iterations 6
smoothSolver:  Solving for Uy, Initial residual = 0.0194468, Final residual = 0.00143402, No Iterations 6
GAMG:  Solving for p, Initial residual = 0.0186753, Final residual = 0.00109089, No Iterations 4
time step continuity errors : sum local = 0.0510245, global = 0.00423243, cumulative = 1.33974
smoothSolver:  Solving for epsilon, Initial residual = 0.00477653, Final residual = 0.0003725, No Iterations 3
smoothSolver:  Solving for k, Initial residual = 0.00597734, Final residual = 0.000438664, No Iterations 4
ExecutionTime = 2.6 s  ClockTime = 3 s

Time = 69

smoothSolver:  Solving for Ux, Initial residual = 0.00375092, Final residual = 0.000247843, No Iterations 6
smoothSolver:  Solving for Uy, Initial residual = 0.0196042, Final residual = 0.00144475, No Iterations 6
GAMG:  Solving for p, Initial residual = 0.0183636, Final residual = 0.00149737, No Iterations 3
time step continuity errors : sum local = 0.0692702, global = 0.0135054, cumulative = 1.35325
smoothSolver:  Solving for epsilon, Initial residual = 0.00471616, Final residual = 0.000372591, No Iterations 3
smoothSolver:  Solving for k, Initial residual = 0.00587492, Final residual = 0.00043354, No Iterations 4
ExecutionTime = 2.64 s  ClockTime = 3 s

Time = 70

smoothSolver:  Solving for Ux, Initial residual = 0.00374666, Final residual = 0.000247861, No Iterations 6
smoothSolver:  Solving for Uy, Initial residual = 0.0197177, Final residual = 0.00145678, No Iterations 6
GAMG:  Solving for p, Initial residual = 0.0178116, Final residual = 0.00155743, No Iterations 3
time step continuity errors : sum local = 0.0722897, global = -0.0109036, cumulative = 1.34234
smoothSolver:  Solving for epsilon, Initial residual = 0.0046851, Final residual = 0.000372781, No Iterations 3
smoothSolver:  Solving for k, Initial residual = 0.00579956, Final residual = 0.000431287, No Iterations 4
ExecutionTime = 2.67 s  ClockTime = 3 s

Time = 71

smoothSolver:  Solving for Ux, Initial residual = 0.00374878, Final residual = 0.000247264, No Iterations 6
smoothSolver:  Solving for Uy, Initial residual = 0.0198391, Final residual = 0.00146493, No Iterations 6
GAMG:  Solving for p, Initial residual = 0.0183461, Final residual = 0.00146258, No Iterations 4
time step continuity errors : sum local = 0.0677907, global = -0.0150702, cumulative = 1.32727
smoothSolver:  Solving for epsilon, Initial residual = 0.00464763, Final residual = 0.00037396, No Iterations 3
smoothSolver:  Solving for k, Initial residual = 0.00570537, Final residual = 0.000427635, No Iterations 4
ExecutionTime = 2.7 s  ClockTime = 3 s

Time = 72

smoothSolver:  Solving for Ux, Initial residual = 0.00372873, Final residual = 0.000246237, No Iterations 6
smoothSolver:  Solving for Uy, Initial residual = 0.0199625, Final residual = 0.00147684, No Iterations 6
GAMG:  Solving for p, Initial residual = 0.0175665, Final residual = 0.00146207, No Iterations 4
time step continuity errors : sum local = 0.0674436, global = -0.0150977, cumulative = 1.31218
smoothSolver:  Solving for epsilon, Initial residual = 0.0046116, Final residual = 0.000372981, No Iterations 3
smoothSolver:  Solving for k, Initial residual = 0.00565445, Final residual = 0.000426434, No Iterations 4
ExecutionTime = 2.75 s  ClockTime = 3 s

Time = 73

smoothSolver:  Solving for Ux, Initial residual = 0.0037198, Final residual = 0.000245764, No Iterations 6
smoothSolver:  Solving for Uy, Initial residual = 0.0201274, Final residual = 0.00148847, No Iterations 6
GAMG:  Solving for p, Initial residual = 0.0180581, Final residual = 0.001494, No Iterations 4
time step continuity errors : sum local = 0.0690484, global = -0.014987, cumulative = 1.29719
smoothSolver:  Solving for epsilon, Initial residual = 0.00457174, Final residual = 0.000374687, No Iterations 3
smoothSolver:  Solving for k, Initial residual = 0.00561723, Final residual = 0.000427194, No Iterations 4
ExecutionTime = 2.78 s  ClockTime = 3 s

Time = 74

smoothSolver:  Solving for Ux, Initial residual = 0.003709, Final residual = 0.000245305, No Iterations 6
smoothSolver:  Solving for Uy, Initial residual = 0.02023, Final residual = 0.00149907, No Iterations 6
GAMG:  Solving for p, Initial residual = 0.0176718, Final residual = 0.00151986, No Iterations 4
time step continuity errors : sum local = 0.0702193, global = -0.0148143, cumulative = 1.28238
smoothSolver:  Solving for epsilon, Initial residual = 0.00453857, Final residual = 0.000376548, No Iterations 3
smoothSolver:  Solving for k, Initial residual = 0.00554457, Final residual = 0.000425614, No Iterations 4
ExecutionTime = 2.81 s  ClockTime = 3 s

Time = 75

smoothSolver:  Solving for Ux, Initial residual = 0.00370782, Final residual = 0.000245062, No Iterations 6
smoothSolver:  Solving for Uy, Initial residual = 0.0204194, Final residual = 0.00151042, No Iterations 6
GAMG:  Solving for p, Initial residual = 0.0182322, Final residual = 0.00153992, No Iterations 4
time step continuity errors : sum local = 0.0708237, global = -0.0144936, cumulative = 1.26788
smoothSolver:  Solving for epsilon, Initial residual = 0.00451631, Final residual = 0.000377989, No Iterations 3
smoothSolver:  Solving for k, Initial residual = 0.00550331, Final residual = 0.00042523, No Iterations 4
ExecutionTime = 2.85 s  ClockTime = 3 s

Time = 76

smoothSolver:  Solving for Ux, Initial residual = 0.00369908, Final residual = 0.000244821, No Iterations 6
smoothSolver:  Solving for Uy, Initial residual = 0.020528, Final residual = 0.00152195, No Iterations 6
GAMG:  Solving for p, Initial residual = 0.0176326, Final residual = 0.00154077, No Iterations 4
time step continuity errors : sum local = 0.0710383, global = -0.014214, cumulative = 1.25367
smoothSolver:  Solving for epsilon, Initial residual = 0.00449774, Final residual = 0.000380899, No Iterations 3
smoothSolver:  Solving for k, Initial residual = 0.00544366, Final residual = 0.000423993, No Iterations 4
ExecutionTime = 2.88 s  ClockTime = 3 s

Time = 77

smoothSolver:  Solving for Ux, Initial residual = 0.00369949, Final residual = 0.000244738, No Iterations 6
smoothSolver:  Solving for Uy, Initial residual = 0.0207068, Final residual = 0.00153426, No Iterations 6
GAMG:  Solving for p, Initial residual = 0.0182494, Final residual = 0.00154854, No Iterations 4
time step continuity errors : sum local = 0.0713206, global = -0.0138672, cumulative = 1.2398
smoothSolver:  Solving for epsilon, Initial residual = 0.00446582, Final residual = 0.000382211, No Iterations 3
smoothSolver:  Solving for k, Initial residual = 0.00543941, Final residual = 0.000426728, No Iterations 4
ExecutionTime = 2.91 s  ClockTime = 3 s

Time = 78

smoothSolver:  Solving for Ux, Initial residual = 0.00369652, Final residual = 0.000244709, No Iterations 6
smoothSolver:  Solving for Uy, Initial residual = 0.0208424, Final residual = 0.00154596, No Iterations 6
GAMG:  Solving for p, Initial residual = 0.0178992, Final residual = 0.00155212, No Iterations 4
time step continuity errors : sum local = 0.0711807, global = -0.0135249, cumulative = 1.22628
smoothSolver:  Solving for epsilon, Initial residual = 0.00445798, Final residual = 0.000385519, No Iterations 3
smoothSolver:  Solving for k, Initial residual = 0.00540727, Final residual = 0.00042781, No Iterations 4
ExecutionTime = 2.95 s  ClockTime = 3 s

Time = 79

smoothSolver:  Solving for Ux, Initial residual = 0.00369946, Final residual = 0.000244673, No Iterations 6
smoothSolver:  Solving for Uy, Initial residual = 0.0210252, Final residual = 0.00155823, No Iterations 6
GAMG:  Solving for p, Initial residual = 0.0184162, Final residual = 0.00154393, No Iterations 4
time step continuity errors : sum local = 0.071146, global = -0.0132867, cumulative = 1.21299
smoothSolver:  Solving for epsilon, Initial residual = 0.00442508, Final residual = 0.000387046, No Iterations 3
smoothSolver:  Solving for k, Initial residual = 0.00536588, Final residual = 0.000428209, No Iterations 4
ExecutionTime = 2.98 s  ClockTime = 3 s

Time = 80

smoothSolver:  Solving for Ux, Initial residual = 0.00369413, Final residual = 0.000244589, No Iterations 6
smoothSolver:  Solving for Uy, Initial residual = 0.021145, Final residual = 0.0015706, No Iterations 6
GAMG:  Solving for p, Initial residual = 0.0178898, Final residual = 0.00153561, No Iterations 4
time step continuity errors : sum local = 0.0706839, global = -0.0130494, cumulative = 1.19994
smoothSolver:  Solving for epsilon, Initial residual = 0.00441547, Final residual = 0.000390731, No Iterations 3
smoothSolver:  Solving for k, Initial residual = 0.00533437, Final residual = 0.000429419, No Iterations 4
ExecutionTime = 3.02 s  ClockTime = 4 s

Time = 81

smoothSolver:  Solving for Ux, Initial residual = 0.00369866, Final residual = 0.000244587, No Iterations 6
smoothSolver:  Solving for Uy, Initial residual = 0.0213573, Final residual = 0.00158353, No Iterations 6
GAMG:  Solving for p, Initial residual = 0.0184175, Final residual = 0.00151099, No Iterations 4
time step continuity errors : sum local = 0.0692769, global = -0.0128818, cumulative = 1.18706
smoothSolver:  Solving for epsilon, Initial residual = 0.00439345, Final residual = 0.000392519, No Iterations 3
smoothSolver:  Solving for k, Initial residual = 0.00529765, Final residual = 0.000429894, No Iterations 4
ExecutionTime = 3.06 s  ClockTime = 4 s

Time = 82

smoothSolver:  Solving for Ux, Initial residual = 0.00369198, Final residual = 0.000244423, No Iterations 6
smoothSolver:  Solving for Uy, Initial residual = 0.0214898, Final residual = 0.00159688, No Iterations 6
GAMG:  Solving for p, Initial residual = 0.0178864, Final residual = 0.00148144, No Iterations 4
time step continuity errors : sum local = 0.0681986, global = -0.0128915, cumulative = 1.17417
smoothSolver:  Solving for epsilon, Initial residual = 0.00438807, Final residual = 0.000395514, No Iterations 3
smoothSolver:  Solving for k, Initial residual = 0.00526691, Final residual = 0.000431067, No Iterations 4
ExecutionTime = 3.09 s  ClockTime = 4 s

Time = 83

smoothSolver:  Solving for Ux, Initial residual = 0.0036948, Final residual = 0.000244341, No Iterations 6
smoothSolver:  Solving for Uy, Initial residual = 0.0216852, Final residual = 0.00161057, No Iterations 6
GAMG:  Solving for p, Initial residual = 0.0183077, Final residual = 0.00145257, No Iterations 4
time step continuity errors : sum local = 0.0669011, global = -0.0129206, cumulative = 1.16125
smoothSolver:  Solving for epsilon, Initial residual = 0.00434563, Final residual = 0.000395549, No Iterations 3
smoothSolver:  Solving for k, Initial residual = 0.00523739, Final residual = 0.000432151, No Iterations 4
ExecutionTime = 3.12 s  ClockTime = 4 s

Time = 84

smoothSolver:  Solving for Ux, Initial residual = 0.00368812, Final residual = 0.000244202, No Iterations 6
smoothSolver:  Solving for Uy, Initial residual = 0.0218344, Final residual = 0.00162464, No Iterations 6
GAMG:  Solving for p, Initial residual = 0.0179186, Final residual = 0.00144574, No Iterations 4
time step continuity errors : sum local = 0.0661568, global = -0.0130564, cumulative = 1.14819
smoothSolver:  Solving for epsilon, Initial residual = 0.00433219, Final residual = 0.000397201, No Iterations 3
smoothSolver:  Solving for k, Initial residual = 0.00523446, Final residual = 0.000435805, No Iterations 4
ExecutionTime = 3.16 s  ClockTime = 4 s

Time = 85

smoothSolver:  Solving for Ux, Initial residual = 0.00369061, Final residual = 0.000243987, No Iterations 6
smoothSolver:  Solving for Uy, Initial residual = 0.0220538, Final residual = 0.00163956, No Iterations 6
GAMG:  Solving for p, Initial residual = 0.0182209, Final residual = 0.00143951, No Iterations 4
time step continuity errors : sum local = 0.0662957, global = -0.0131199, cumulative = 1.13507
smoothSolver:  Solving for epsilon, Initial residual = 0.00430337, Final residual = 0.000399132, No Iterations 3
smoothSolver:  Solving for k, Initial residual = 0.00517875, Final residual = 0.000434953, No Iterations 4
ExecutionTime = 3.19 s  ClockTime = 4 s

Time = 86

smoothSolver:  Solving for Ux, Initial residual = 0.0036814, Final residual = 0.000243713, No Iterations 6
smoothSolver:  Solving for Uy, Initial residual = 0.0222002, Final residual = 0.00165436, No Iterations 6
GAMG:  Solving for p, Initial residual = 0.0177359, Final residual = 0.00144093, No Iterations 4
time step continuity errors : sum local = 0.0663457, global = -0.0133323, cumulative = 1.12174
smoothSolver:  Solving for epsilon, Initial residual = 0.00429642, Final residual = 0.000400989, No Iterations 3
smoothSolver:  Solving for k, Initial residual = 0.00519682, Final residual = 0.000439562, No Iterations 4
ExecutionTime = 3.23 s  ClockTime = 4 s

Time = 87

smoothSolver:  Solving for Ux, Initial residual = 0.0036819, Final residual = 0.000243448, No Iterations 6
smoothSolver:  Solving for Uy, Initial residual = 0.0224444, Final residual = 0.0016697, No Iterations 6
GAMG:  Solving for p, Initial residual = 0.017886, Final residual = 0.00147713, No Iterations 4
time step continuity errors : sum local = 0.0675335, global = -0.0133646, cumulative = 1.10837
smoothSolver:  Solving for epsilon, Initial residual = 0.00426969, Final residual = 0.000402445, No Iterations 3
smoothSolver:  Solving for k, Initial residual = 0.00517992, Final residual = 0.000441546, No Iterations 4
ExecutionTime = 3.26 s  ClockTime = 4 s

Time = 88

smoothSolver:  Solving for Ux, Initial residual = 0.00366947, Final residual = 0.000243109, No Iterations 6
smoothSolver:  Solving for Uy, Initial residual = 0.0226149, Final residual = 0.00168611, No Iterations 6
GAMG:  Solving for p, Initial residual = 0.0174691, Final residual = 0.00148321, No Iterations 4
time step continuity errors : sum local = 0.0682013, global = -0.0136488, cumulative = 1.09472
smoothSolver:  Solving for epsilon, Initial residual = 0.00427755, Final residual = 0.000405004, No Iterations 3
smoothSolver:  Solving for k, Initial residual = 0.00514965, Final residual = 0.000442119, No Iterations 4
ExecutionTime = 3.29 s  ClockTime = 4 s

Time = 89

smoothSolver:  Solving for Ux, Initial residual = 0.00366781, Final residual = 0.000242757, No Iterations 6
smoothSolver:  Solving for Uy, Initial residual = 0.0228224, Final residual = 0.00170267, No Iterations 6
GAMG:  Solving for p, Initial residual = 0.0166511, Final residual = 0.00148807, No Iterations 4
time step continuity errors : sum local = 0.06854, global = -0.0140277, cumulative = 1.0807
smoothSolver:  Solving for epsilon, Initial residual = 0.00423149, Final residual = 0.000404897, No Iterations 3
smoothSolver:  Solving for k, Initial residual = 0.00513807, Final residual = 0.000444626, No Iterations 4
ExecutionTime = 3.34 s  ClockTime = 4 s

Time = 90

smoothSolver:  Solving for Ux, Initial residual = 0.00365477, Final residual = 0.000242357, No Iterations 6
smoothSolver:  Solving for Uy, Initial residual = 0.0230112, Final residual = 0.00171989, No Iterations 6
GAMG:  Solving for p, Initial residual = 0.0163201, Final residual = 0.00152475, No Iterations 4
time step continuity errors : sum local = 0.0698401, global = -0.0140311, cumulative = 1.06667
smoothSolver:  Solving for epsilon, Initial residual = 0.00420239, Final residual = 0.00040389, No Iterations 3
smoothSolver:  Solving for k, Initial residual = 0.00514751, Final residual = 0.000449213, No Iterations 4
ExecutionTime = 3.37 s  ClockTime = 4 s

Time = 91

smoothSolver:  Solving for Ux, Initial residual = 0.00364564, Final residual = 0.000241966, No Iterations 6
smoothSolver:  Solving for Uy, Initial residual = 0.0232086, Final residual = 0.00173758, No Iterations 6
GAMG:  Solving for p, Initial residual = 0.0160243, Final residual = 0.00154611, No Iterations 4
time step continuity errors : sum local = 0.0713746, global = -0.014318, cumulative = 1.05235
smoothSolver:  Solving for epsilon, Initial residual = 0.00418604, Final residual = 0.000405344, No Iterations 3
smoothSolver:  Solving for k, Initial residual = 0.00510591, Final residual = 0.000448489, No Iterations 4
ExecutionTime = 3.4 s  ClockTime = 4 s

Time = 92

smoothSolver:  Solving for Ux, Initial residual = 0.00363639, Final residual = 0.00024148, No Iterations 6
smoothSolver:  Solving for Uy, Initial residual = 0.0234101, Final residual = 0.00175399, No Iterations 6
GAMG:  Solving for p, Initial residual = 0.0156213, Final residual = 0.00126565, No Iterations 5
time step continuity errors : sum local = 0.0584145, global = 0.0133436, cumulative = 1.06569
smoothSolver:  Solving for epsilon, Initial residual = 0.00415173, Final residual = 0.000403872, No Iterations 3
smoothSolver:  Solving for k, Initial residual = 0.00509695, Final residual = 0.000450414, No Iterations 4
ExecutionTime = 3.44 s  ClockTime = 4 s

Time = 93

smoothSolver:  Solving for Ux, Initial residual = 0.00363098, Final residual = 0.000240692, No Iterations 6
smoothSolver:  Solving for Uy, Initial residual = 0.0236776, Final residual = 0.00177248, No Iterations 6
GAMG:  Solving for p, Initial residual = 0.0152675, Final residual = 0.00125132, No Iterations 4
time step continuity errors : sum local = 0.0571924, global = -0.0144839, cumulative = 1.05121
smoothSolver:  Solving for epsilon, Initial residual = 0.00414336, Final residual = 0.000403993, No Iterations 3
smoothSolver:  Solving for k, Initial residual = 0.00508649, Final residual = 0.000451934, No Iterations 4
ExecutionTime = 3.47 s  ClockTime = 4 s

Time = 94

smoothSolver:  Solving for Ux, Initial residual = 0.00361817, Final residual = 0.000240242, No Iterations 6
smoothSolver:  Solving for Uy, Initial residual = 0.0239126, Final residual = 0.00179293, No Iterations 6
GAMG:  Solving for p, Initial residual = 0.0150227, Final residual = 0.00119142, No Iterations 5
time step continuity errors : sum local = 0.0548876, global = 0.0114402, cumulative = 1.06265
smoothSolver:  Solving for epsilon, Initial residual = 0.00412063, Final residual = 0.000403458, No Iterations 3
smoothSolver:  Solving for k, Initial residual = 0.00507767, Final residual = 0.000453443, No Iterations 4
ExecutionTime = 3.51 s  ClockTime = 4 s

Time = 95

smoothSolver:  Solving for Ux, Initial residual = 0.00361195, Final residual = 0.000239958, No Iterations 6
smoothSolver:  Solving for Uy, Initial residual = 0.0241277, Final residual = 0.00181002, No Iterations 6
GAMG:  Solving for p, Initial residual = 0.0149558, Final residual = 0.00130545, No Iterations 4
time step continuity errors : sum local = 0.0599569, global = -0.0145714, cumulative = 1.04808
smoothSolver:  Solving for epsilon, Initial residual = 0.00410003, Final residual = 0.000402131, No Iterations 3
smoothSolver:  Solving for k, Initial residual = 0.00506953, Final residual = 0.000454914, No Iterations 4
ExecutionTime = 3.55 s  ClockTime = 4 s

Time = 96

smoothSolver:  Solving for Ux, Initial residual = 0.00359974, Final residual = 0.000239178, No Iterations 6
smoothSolver:  Solving for Uy, Initial residual = 0.0243578, Final residual = 0.00182707, No Iterations 6
GAMG:  Solving for p, Initial residual = 0.0147758, Final residual = 0.00127, No Iterations 5
time step continuity errors : sum local = 0.058115, global = 0.0120812, cumulative = 1.06016
smoothSolver:  Solving for epsilon, Initial residual = 0.00408078, Final residual = 0.000400491, No Iterations 3
smoothSolver:  Solving for k, Initial residual = 0.00506991, Final residual = 0.000456976, No Iterations 4
ExecutionTime = 3.58 s  ClockTime = 4 s

Time = 97

smoothSolver:  Solving for Ux, Initial residual = 0.00358978, Final residual = 0.00023861, No Iterations 6
smoothSolver:  Solving for Uy, Initial residual = 0.0245888, Final residual = 0.00184505, No Iterations 6
GAMG:  Solving for p, Initial residual = 0.0148608, Final residual = 0.00134102, No Iterations 4
time step continuity errors : sum local = 0.0615732, global = -0.0149052, cumulative = 1.04525
smoothSolver:  Solving for epsilon, Initial residual = 0.00406598, Final residual = 0.000399061, No Iterations 3
smoothSolver:  Solving for k, Initial residual = 0.00505672, Final residual = 0.000457378, No Iterations 4
ExecutionTime = 3.61 s  ClockTime = 4 s

Time = 98

smoothSolver:  Solving for Ux, Initial residual = 0.00357318, Final residual = 0.000237645, No Iterations 6
smoothSolver:  Solving for Uy, Initial residual = 0.0247958, Final residual = 0.00186269, No Iterations 6
GAMG:  Solving for p, Initial residual = 0.014599, Final residual = 0.00131471, No Iterations 5
time step continuity errors : sum local = 0.0602983, global = 0.0127926, cumulative = 1.05804
smoothSolver:  Solving for epsilon, Initial residual = 0.00403865, Final residual = 0.000396806, No Iterations 3
smoothSolver:  Solving for k, Initial residual = 0.00506091, Final residual = 0.000458982, No Iterations 4
ExecutionTime = 3.65 s  ClockTime = 4 s

Time = 99

smoothSolver:  Solving for Ux, Initial residual = 0.00356191, Final residual = 0.00023711, No Iterations 6
smoothSolver:  Solving for Uy, Initial residual = 0.0250456, Final residual = 0.00188014, No Iterations 6
GAMG:  Solving for p, Initial residual = 0.0146591, Final residual = 0.00138015, No Iterations 4
time step continuity errors : sum local = 0.0627289, global = -0.0147581, cumulative = 1.04329
smoothSolver:  Solving for epsilon, Initial residual = 0.0040274, Final residual = 0.000394885, No Iterations 3
smoothSolver:  Solving for k, Initial residual = 0.00506533, Final residual = 0.000460405, No Iterations 4
ExecutionTime = 3.68 s  ClockTime = 4 s

Time = 100

smoothSolver:  Solving for Ux, Initial residual = 0.0035453, Final residual = 0.000236065, No Iterations 6
smoothSolver:  Solving for Uy, Initial residual = 0.025264, Final residual = 0.00189857, No Iterations 6
GAMG:  Solving for p, Initial residual = 0.0146128, Final residual = 0.00134978, No Iterations 5
time step continuity errors : sum local = 0.0616799, global = 0.0127902, cumulative = 1.05608
smoothSolver:  Solving for epsilon, Initial residual = 0.00398924, Final residual = 0.000391686, No Iterations 3
smoothSolver:  Solving for k, Initial residual = 0.00507405, Final residual = 0.000462054, No Iterations 4
ExecutionTime = 3.78 s  ClockTime = 4 s

streamLine streamlines write:
    seeded 10 particles
    Tracks:10
    Total samples:12015
    Writing data to "/shared/lsfadmin/myOpenFoam_run_1523215655117LY1E1/pitzDaily/postProcessing/sets/streamlines/100"
Time = 101

smoothSolver:  Solving for Ux, Initial residual = 0.00353155, Final residual = 0.000235524, No Iterations 6
smoothSolver:  Solving for Uy, Initial residual = 0.0254803, Final residual = 0.00191505, No Iterations 6
GAMG:  Solving for p, Initial residual = 0.0145859, Final residual = 0.0014064, No Iterations 4
time step continuity errors : sum local = 0.0639412, global = -0.0145625, cumulative = 1.04151
smoothSolver:  Solving for epsilon, Initial residual = 0.00397232, Final residual = 0.000388653, No Iterations 3
smoothSolver:  Solving for k, Initial residual = 0.00508157, Final residual = 0.000463203, No Iterations 4
ExecutionTime = 3.95 s  ClockTime = 4 s

Time = 102

smoothSolver:  Solving for Ux, Initial residual = 0.00351344, Final residual = 0.000234381, No Iterations 6
smoothSolver:  Solving for Uy, Initial residual = 0.0257109, Final residual = 0.00193253, No Iterations 6
GAMG:  Solving for p, Initial residual = 0.0145256, Final residual = 0.00137291, No Iterations 5
time step continuity errors : sum local = 0.0621461, global = 0.012552, cumulative = 1.05407
smoothSolver:  Solving for epsilon, Initial residual = 0.00394933, Final residual = 0.000385936, No Iterations 3
smoothSolver:  Solving for k, Initial residual = 0.00508292, Final residual = 0.000463777, No Iterations 4
ExecutionTime = 3.98 s  ClockTime = 4 s

Time = 103

smoothSolver:  Solving for Ux, Initial residual = 0.0034991, Final residual = 0.0002338, No Iterations 6
smoothSolver:  Solving for Uy, Initial residual = 0.0259317, Final residual = 0.00195023, No Iterations 6
GAMG:  Solving for p, Initial residual = 0.0146422, Final residual = 0.00140045, No Iterations 4
time step continuity errors : sum local = 0.0634595, global = -0.0139813, cumulative = 1.04008
smoothSolver:  Solving for epsilon, Initial residual = 0.003941, Final residual = 0.000384277, No Iterations 3
smoothSolver:  Solving for k, Initial residual = 0.00510775, Final residual = 0.000466159, No Iterations 4
ExecutionTime = 4.01 s  ClockTime = 5 s

Time = 104

smoothSolver:  Solving for Ux, Initial residual = 0.00347904, Final residual = 0.000232654, No Iterations 6
smoothSolver:  Solving for Uy, Initial residual = 0.0261306, Final residual = 0.00196622, No Iterations 6
GAMG:  Solving for p, Initial residual = 0.0144158, Final residual = 0.00135713, No Iterations 5
time step continuity errors : sum local = 0.0613259, global = 0.0119448, cumulative = 1.05203
smoothSolver:  Solving for epsilon, Initial residual = 0.00391814, Final residual = 0.000380157, No Iterations 3
smoothSolver:  Solving for k, Initial residual = 0.00510647, Final residual = 0.000466054, No Iterations 4
ExecutionTime = 4.05 s  ClockTime = 5 s

Time = 105

smoothSolver:  Solving for Ux, Initial residual = 0.00346462, Final residual = 0.000232029, No Iterations 6
smoothSolver:  Solving for Uy, Initial residual = 0.0263635, Final residual = 0.00198307, No Iterations 6
GAMG:  Solving for p, Initial residual = 0.0144205, Final residual = 0.0013938, No Iterations 4
time step continuity errors : sum local = 0.0624754, global = -0.0134042, cumulative = 1.03863
smoothSolver:  Solving for epsilon, Initial residual = 0.00390822, Final residual = 0.000377649, No Iterations 3
smoothSolver:  Solving for k, Initial residual = 0.00512399, Final residual = 0.000467397, No Iterations 4
ExecutionTime = 4.08 s  ClockTime = 5 s

Time = 106

smoothSolver:  Solving for Ux, Initial residual = 0.00344359, Final residual = 0.000230846, No Iterations 6
smoothSolver:  Solving for Uy, Initial residual = 0.0265605, Final residual = 0.0019991, No Iterations 6
GAMG:  Solving for p, Initial residual = 0.0144854, Final residual = 0.00133067, No Iterations 5
time step continuity errors : sum local = 0.0598562, global = 0.0112355, cumulative = 1.04986
smoothSolver:  Solving for epsilon, Initial residual = 0.0038917, Final residual = 0.000374528, No Iterations 3
smoothSolver:  Solving for k, Initial residual = 0.00513516, Final residual = 0.000468179, No Iterations 4
ExecutionTime = 4.12 s  ClockTime = 5 s

Time = 107

smoothSolver:  Solving for Ux, Initial residual = 0.0034284, Final residual = 0.000230292, No Iterations 6
smoothSolver:  Solving for Uy, Initial residual = 0.0267643, Final residual = 0.00201576, No Iterations 6
GAMG:  Solving for p, Initial residual = 0.0143765, Final residual = 0.00133518, No Iterations 4
time step continuity errors : sum local = 0.0596886, global = -0.0124697, cumulative = 1.03739
smoothSolver:  Solving for epsilon, Initial residual = 0.00387841, Final residual = 0.000372757, No Iterations 3
smoothSolver:  Solving for k, Initial residual = 0.00515529, Final residual = 0.000468829, No Iterations 4
ExecutionTime = 4.15 s  ClockTime = 5 s

Time = 108

smoothSolver:  Solving for Ux, Initial residual = 0.0034057, Final residual = 0.000229086, No Iterations 6
smoothSolver:  Solving for Uy, Initial residual = 0.0269718, Final residual = 0.00203105, No Iterations 6
GAMG:  Solving for p, Initial residual = 0.0143745, Final residual = 0.00128522, No Iterations 5
time step continuity errors : sum local = 0.0571721, global = 0.0101654, cumulative = 1.04756
smoothSolver:  Solving for epsilon, Initial residual = 0.00385684, Final residual = 0.000368729, No Iterations 3
smoothSolver:  Solving for k, Initial residual = 0.00517739, Final residual = 0.000470109, No Iterations 4
ExecutionTime = 4.18 s  ClockTime = 5 s

Time = 109

smoothSolver:  Solving for Ux, Initial residual = 0.00339242, Final residual = 0.000228674, No Iterations 6
smoothSolver:  Solving for Uy, Initial residual = 0.0271758, Final residual = 0.00204949, No Iterations 6
GAMG:  Solving for p, Initial residual = 0.0145848, Final residual = 0.00126358, No Iterations 4
time step continuity errors : sum local = 0.0562157, global = -0.0113817, cumulative = 1.03617
smoothSolver:  Solving for epsilon, Initial residual = 0.00385102, Final residual = 0.000367549, No Iterations 3
smoothSolver:  Solving for k, Initial residual = 0.00519119, Final residual = 0.000470234, No Iterations 4
ExecutionTime = 4.22 s  ClockTime = 5 s

Time = 110

smoothSolver:  Solving for Ux, Initial residual = 0.00336828, Final residual = 0.000227496, No Iterations 6
smoothSolver:  Solving for Uy, Initial residual = 0.0273502, Final residual = 0.00206431, No Iterations 6
GAMG:  Solving for p, Initial residual = 0.014358, Final residual = 0.00120325, No Iterations 5
time step continuity errors : sum local = 0.0533002, global = 0.00891724, cumulative = 1.04509
smoothSolver:  Solving for epsilon, Initial residual = 0.00383298, Final residual = 0.000363923, No Iterations 3
smoothSolver:  Solving for k, Initial residual = 0.00520562, Final residual = 0.000470587, No Iterations 4
ExecutionTime = 4.25 s  ClockTime = 5 s

Time = 111

smoothSolver:  Solving for Ux, Initial residual = 0.003356, Final residual = 0.000227214, No Iterations 6
smoothSolver:  Solving for Uy, Initial residual = 0.0275702, Final residual = 0.0020821, No Iterations 6
[...]
time step continuity errors : sum local = 0.00723414, global = 0.000329789, cumulative = 0.963381
smoothSolver:  Solving for epsilon, Initial residual = 0.00032999, Final residual = 2.40298e-05, No Iterations 3
smoothSolver:  Solving for k, Initial residual = 0.00056666, Final residual = 3.49765e-05, No Iterations 4
ExecutionTime = 9.51 s  ClockTime = 10 s

Time = 260

smoothSolver:  Solving for Ux, Initial residual = 0.000307844, Final residual = 2.1115e-05, No Iterations 6
smoothSolver:  Solving for Uy, Initial residual = 0.00252991, Final residual = 0.000175819, No Iterations 6
GAMG:  Solving for p, Initial residual = 0.00317523, Final residual = 0.000243899, No Iterations 4
time step continuity errors : sum local = 0.0103633, global = -0.00072016, cumulative = 0.96266
smoothSolver:  Solving for epsilon, Initial residual = 0.000319771, Final residual = 2.32168e-05, No Iterations 3
smoothSolver:  Solving for k, Initial residual = 0.000551162, Final residual = 3.38261e-05, No Iterations 4
ExecutionTime = 9.55 s  ClockTime = 10 s

Time = 261

smoothSolver:  Solving for Ux, Initial residual = 0.000298322, Final residual = 2.05725e-05, No Iterations 6
smoothSolver:  Solving for Uy, Initial residual = 0.00246939, Final residual = 0.000168168, No Iterations 6
GAMG:  Solving for p, Initial residual = 0.00241856, Final residual = 0.000173399, No Iterations 5
time step continuity errors : sum local = 0.00736897, global = 0.000387563, cumulative = 0.963048
smoothSolver:  Solving for epsilon, Initial residual = 0.000309525, Final residual = 2.23831e-05, No Iterations 3
smoothSolver:  Solving for k, Initial residual = 0.000535796, Final residual = 3.27977e-05, No Iterations 4
ExecutionTime = 9.58 s  ClockTime = 10 s

Time = 262

smoothSolver:  Solving for Ux, Initial residual = 0.000290082, Final residual = 2.00476e-05, No Iterations 6
smoothSolver:  Solving for Uy, Initial residual = 0.00235539, Final residual = 0.00016073, No Iterations 6
GAMG:  Solving for p, Initial residual = 0.00226026, Final residual = 0.00022331, No Iterations 4
time step continuity errors : sum local = 0.00948611, global = -0.000690806, cumulative = 0.962357
smoothSolver:  Solving for epsilon, Initial residual = 0.000300111, Final residual = 2.15734e-05, No Iterations 3
smoothSolver:  Solving for k, Initial residual = 0.000519662, Final residual = 3.17326e-05, No Iterations 4
ExecutionTime = 9.61 s  ClockTime = 10 s

Time = 263

smoothSolver:  Solving for Ux, Initial residual = 0.000282219, Final residual = 1.95313e-05, No Iterations 6
smoothSolver:  Solving for Uy, Initial residual = 0.00226959, Final residual = 0.00015255, No Iterations 6
GAMG:  Solving for p, Initial residual = 0.0023602, Final residual = 0.000235345, No Iterations 4
time step continuity errors : sum local = 0.0100074, global = -0.000800231, cumulative = 0.961557
smoothSolver:  Solving for epsilon, Initial residual = 0.000291906, Final residual = 2.07526e-05, No Iterations 3
smoothSolver:  Solving for k, Initial residual = 0.000504129, Final residual = 3.06108e-05, No Iterations 4
ExecutionTime = 9.65 s  ClockTime = 10 s

Time = 264

smoothSolver:  Solving for Ux, Initial residual = 0.000275017, Final residual = 1.90214e-05, No Iterations 6
smoothSolver:  Solving for Uy, Initial residual = 0.0022023, Final residual = 0.000145173, No Iterations 6
GAMG:  Solving for p, Initial residual = 0.00220676, Final residual = 0.000169202, No Iterations 5
time step continuity errors : sum local = 0.00719393, global = 0.000544869, cumulative = 0.962102
smoothSolver:  Solving for epsilon, Initial residual = 0.000281482, Final residual = 1.99006e-05, No Iterations 3
smoothSolver:  Solving for k, Initial residual = 0.000486884, Final residual = 2.96245e-05, No Iterations 4
ExecutionTime = 9.68 s  ClockTime = 10 s

Time = 265

smoothSolver:  Solving for Ux, Initial residual = 0.000267749, Final residual = 1.8427e-05, No Iterations 6
smoothSolver:  Solving for Uy, Initial residual = 0.00207682, Final residual = 0.000137967, No Iterations 6
GAMG:  Solving for p, Initial residual = 0.00214163, Final residual = 0.000198869, No Iterations 4
time step continuity errors : sum local = 0.008459, global = -0.000659939, cumulative = 0.961442
smoothSolver:  Solving for epsilon, Initial residual = 0.000268639, Final residual = 1.90989e-05, No Iterations 3
smoothSolver:  Solving for k, Initial residual = 0.000470578, Final residual = 2.8483e-05, No Iterations 4
ExecutionTime = 9.71 s  ClockTime = 10 s

Time = 266

smoothSolver:  Solving for Ux, Initial residual = 0.000260496, Final residual = 1.79057e-05, No Iterations 6
smoothSolver:  Solving for Uy, Initial residual = 0.00197311, Final residual = 0.000131261, No Iterations 6
GAMG:  Solving for p, Initial residual = 0.00198226, Final residual = 0.00015681, No Iterations 5
time step continuity errors : sum local = 0.00666769, global = 0.000652982, cumulative = 0.962095
smoothSolver:  Solving for epsilon, Initial residual = 0.000259781, Final residual = 1.83558e-05, No Iterations 3
smoothSolver:  Solving for k, Initial residual = 0.000454025, Final residual = 2.75083e-05, No Iterations 4
ExecutionTime = 9.75 s  ClockTime = 10 s

Time = 267

smoothSolver:  Solving for Ux, Initial residual = 0.000255051, Final residual = 1.73266e-05, No Iterations 6
smoothSolver:  Solving for Uy, Initial residual = 0.00192939, Final residual = 0.000125226, No Iterations 6
GAMG:  Solving for p, Initial residual = 0.00310882, Final residual = 0.000270773, No Iterations 3
time step continuity errors : sum local = 0.0115285, global = 0.000954501, cumulative = 0.963049
smoothSolver:  Solving for epsilon, Initial residual = 0.0002513, Final residual = 1.74913e-05, No Iterations 3
smoothSolver:  Solving for k, Initial residual = 0.000437825, Final residual = 2.648e-05, No Iterations 4
ExecutionTime = 9.78 s  ClockTime = 10 s

Time = 268

smoothSolver:  Solving for Ux, Initial residual = 0.000247272, Final residual = 1.67474e-05, No Iterations 6
smoothSolver:  Solving for Uy, Initial residual = 0.00182553, Final residual = 0.000118838, No Iterations 6
GAMG:  Solving for p, Initial residual = 0.00213224, Final residual = 0.0001716, No Iterations 4
time step continuity errors : sum local = 0.00730085, global = -0.000477129, cumulative = 0.962572
smoothSolver:  Solving for epsilon, Initial residual = 0.000241877, Final residual = 1.67299e-05, No Iterations 3
smoothSolver:  Solving for k, Initial residual = 0.000421814, Final residual = 2.54446e-05, No Iterations 4
ExecutionTime = 9.82 s  ClockTime = 10 s

Time = 269

smoothSolver:  Solving for Ux, Initial residual = 0.000239367, Final residual = 1.60497e-05, No Iterations 6
smoothSolver:  Solving for Uy, Initial residual = 0.00173708, Final residual = 0.00011377, No Iterations 6
GAMG:  Solving for p, Initial residual = 0.00189015, Final residual = 0.000168921, No Iterations 4
time step continuity errors : sum local = 0.00717298, global = -0.000498014, cumulative = 0.962074
smoothSolver:  Solving for epsilon, Initial residual = 0.000233521, Final residual = 1.59289e-05, No Iterations 3
smoothSolver:  Solving for k, Initial residual = 0.000406672, Final residual = 2.45702e-05, No Iterations 4
ExecutionTime = 9.85 s  ClockTime = 10 s

Time = 270

smoothSolver:  Solving for Ux, Initial residual = 0.000231434, Final residual = 1.5427e-05, No Iterations 6
smoothSolver:  Solving for Uy, Initial residual = 0.00165828, Final residual = 0.000108089, No Iterations 6
GAMG:  Solving for p, Initial residual = 0.00209474, Final residual = 0.000160402, No Iterations 4
time step continuity errors : sum local = 0.00681521, global = -0.00052809, cumulative = 0.961546
smoothSolver:  Solving for epsilon, Initial residual = 0.00022653, Final residual = 1.53197e-05, No Iterations 3
smoothSolver:  Solving for k, Initial residual = 0.000391706, Final residual = 2.35438e-05, No Iterations 4
ExecutionTime = 9.88 s  ClockTime = 10 s

Time = 271

smoothSolver:  Solving for Ux, Initial residual = 0.000224806, Final residual = 1.47973e-05, No Iterations 6
smoothSolver:  Solving for Uy, Initial residual = 0.00161188, Final residual = 0.000160498, No Iterations 5
GAMG:  Solving for p, Initial residual = 0.00285958, Final residual = 0.000242809, No Iterations 3
time step continuity errors : sum local = 0.0103278, global = 0.000865733, cumulative = 0.962412
smoothSolver:  Solving for epsilon, Initial residual = 0.000215324, Final residual = 1.45368e-05, No Iterations 3
smoothSolver:  Solving for k, Initial residual = 0.00037571, Final residual = 2.26258e-05, No Iterations 4
ExecutionTime = 9.91 s  ClockTime = 10 s

Time = 272

smoothSolver:  Solving for Ux, Initial residual = 0.000215221, Final residual = 1.40698e-05, No Iterations 6
smoothSolver:  Solving for Uy, Initial residual = 0.00158066, Final residual = 0.000156305, No Iterations 5
GAMG:  Solving for p, Initial residual = 0.00194266, Final residual = 0.000169608, No Iterations 4
time step continuity errors : sum local = 0.00720112, global = 0.000890554, cumulative = 0.963302
smoothSolver:  Solving for epsilon, Initial residual = 0.000206067, Final residual = 1.38624e-05, No Iterations 3
smoothSolver:  Solving for k, Initial residual = 0.000361425, Final residual = 2.17224e-05, No Iterations 4
ExecutionTime = 9.94 s  ClockTime = 11 s

Time = 273

smoothSolver:  Solving for Ux, Initial residual = 0.000205632, Final residual = 1.33073e-05, No Iterations 6
smoothSolver:  Solving for Uy, Initial residual = 0.00149344, Final residual = 9.91093e-05, No Iterations 6
GAMG:  Solving for p, Initial residual = 0.00196211, Final residual = 0.000195059, No Iterations 3
time step continuity errors : sum local = 0.00827254, global = -0.000783276, cumulative = 0.962519
smoothSolver:  Solving for epsilon, Initial residual = 0.000199581, Final residual = 1.3291e-05, No Iterations 3
smoothSolver:  Solving for k, Initial residual = 0.000348203, Final residual = 2.09436e-05, No Iterations 4
ExecutionTime = 9.98 s  ClockTime = 11 s

Time = 274

smoothSolver:  Solving for Ux, Initial residual = 0.000199416, Final residual = 1.288e-05, No Iterations 6
smoothSolver:  Solving for Uy, Initial residual = 0.00143171, Final residual = 9.41159e-05, No Iterations 6
GAMG:  Solving for p, Initial residual = 0.00226565, Final residual = 0.000223495, No Iterations 3
time step continuity errors : sum local = 0.00949052, global = -0.000866512, cumulative = 0.961653
smoothSolver:  Solving for epsilon, Initial residual = 0.000193615, Final residual = 1.26803e-05, No Iterations 3
smoothSolver:  Solving for k, Initial residual = 0.000334676, Final residual = 2.00948e-05, No Iterations 4
ExecutionTime = 10.01 s  ClockTime = 11 s

Time = 275

smoothSolver:  Solving for Ux, Initial residual = 0.000191053, Final residual = 1.90221e-05, No Iterations 5
smoothSolver:  Solving for Uy, Initial residual = 0.00139035, Final residual = 0.000139035, No Iterations 5
GAMG:  Solving for p, Initial residual = 0.00171485, Final residual = 0.000144841, No Iterations 4
time step continuity errors : sum local = 0.00613846, global = 0.000814627, cumulative = 0.962467
smoothSolver:  Solving for epsilon, Initial residual = 0.000187474, Final residual = 1.21479e-05, No Iterations 3
smoothSolver:  Solving for k, Initial residual = 0.000322116, Final residual = 1.93735e-05, No Iterations 4
ExecutionTime = 10.05 s  ClockTime = 11 s

Time = 276

smoothSolver:  Solving for Ux, Initial residual = 0.000182263, Final residual = 1.8051e-05, No Iterations 5
smoothSolver:  Solving for Uy, Initial residual = 0.00131971, Final residual = 8.90357e-05, No Iterations 6
GAMG:  Solving for p, Initial residual = 0.00191173, Final residual = 0.000178579, No Iterations 3
time step continuity errors : sum local = 0.00756936, global = -0.000469128, cumulative = 0.961998
smoothSolver:  Solving for epsilon, Initial residual = 0.000180747, Final residual = 1.1598e-05, No Iterations 3
smoothSolver:  Solving for k, Initial residual = 0.000309184, Final residual = 1.86393e-05, No Iterations 4
ExecutionTime = 10.08 s  ClockTime = 11 s

Time = 277

smoothSolver:  Solving for Ux, Initial residual = 0.000175606, Final residual = 1.73677e-05, No Iterations 5
smoothSolver:  Solving for Uy, Initial residual = 0.00126209, Final residual = 8.59267e-05, No Iterations 6
GAMG:  Solving for p, Initial residual = 0.00166686, Final residual = 0.000146096, No Iterations 4
time step continuity errors : sum local = 0.00618889, global = 0.000747234, cumulative = 0.962745
smoothSolver:  Solving for epsilon, Initial residual = 0.000173547, Final residual = 1.12354e-05, No Iterations 3
smoothSolver:  Solving for k, Initial residual = 0.000297931, Final residual = 1.80114e-05, No Iterations 4
ExecutionTime = 10.11 s  ClockTime = 11 s

Time = 278

smoothSolver:  Solving for Ux, Initial residual = 0.000169042, Final residual = 1.65909e-05, No Iterations 5
smoothSolver:  Solving for Uy, Initial residual = 0.00124187, Final residual = 8.41675e-05, No Iterations 6
GAMG:  Solving for p, Initial residual = 0.00250311, Final residual = 0.000189524, No Iterations 3
time step continuity errors : sum local = 0.00803053, global = -0.000754841, cumulative = 0.961991
smoothSolver:  Solving for epsilon, Initial residual = 0.000168552, Final residual = 1.0763e-05, No Iterations 3
smoothSolver:  Solving for k, Initial residual = 0.000286165, Final residual = 1.73137e-05, No Iterations 4
ExecutionTime = 10.14 s  ClockTime = 11 s

Time = 279

smoothSolver:  Solving for Ux, Initial residual = 0.000161933, Final residual = 1.5838e-05, No Iterations 5
smoothSolver:  Solving for Uy, Initial residual = 0.00122558, Final residual = 8.23262e-05, No Iterations 6
GAMG:  Solving for p, Initial residual = 0.00188193, Final residual = 0.000148689, No Iterations 4
time step continuity errors : sum local = 0.00629544, global = 0.000746603, cumulative = 0.962737
smoothSolver:  Solving for epsilon, Initial residual = 0.000163144, Final residual = 1.03854e-05, No Iterations 3
smoothSolver:  Solving for k, Initial residual = 0.000275741, Final residual = 1.67373e-05, No Iterations 4
ExecutionTime = 10.17 s  ClockTime = 11 s

Time = 280

smoothSolver:  Solving for Ux, Initial residual = 0.000153925, Final residual = 1.50763e-05, No Iterations 5
smoothSolver:  Solving for Uy, Initial residual = 0.00117604, Final residual = 8.09261e-05, No Iterations 6
GAMG:  Solving for p, Initial residual = 0.00170959, Final residual = 0.000139003, No Iterations 4
time step continuity errors : sum local = 0.00587899, global = 0.0006374, cumulative = 0.963375
smoothSolver:  Solving for epsilon, Initial residual = 0.00015851, Final residual = 1.00405e-05, No Iterations 3
smoothSolver:  Solving for k, Initial residual = 0.000265851, Final residual = 1.61664e-05, No Iterations 4
ExecutionTime = 10.2 s  ClockTime = 11 s

Time = 281

smoothSolver:  Solving for Ux, Initial residual = 0.000147186, Final residual = 1.44302e-05, No Iterations 5
smoothSolver:  Solving for Uy, Initial residual = 0.00112543, Final residual = 7.89077e-05, No Iterations 6
GAMG:  Solving for p, Initial residual = 0.0015805, Final residual = 0.000131166, No Iterations 4
time step continuity errors : sum local = 0.00554301, global = 0.000616319, cumulative = 0.963991
smoothSolver:  Solving for epsilon, Initial residual = 0.000156723, Final residual = 9.82994e-06, No Iterations 3
smoothSolver:  Solving for k, Initial residual = 0.000258101, Final residual = 1.56619e-05, No Iterations 4
ExecutionTime = 10.24 s  ClockTime = 11 s

Time = 282

smoothSolver:  Solving for Ux, Initial residual = 0.000142712, Final residual = 1.39093e-05, No Iterations 5
smoothSolver:  Solving for Uy, Initial residual = 0.00113627, Final residual = 7.69881e-05, No Iterations 6
GAMG:  Solving for p, Initial residual = 0.00224204, Final residual = 0.000173513, No Iterations 3
time step continuity errors : sum local = 0.0073347, global = -0.000580331, cumulative = 0.963411
smoothSolver:  Solving for epsilon, Initial residual = 0.000153918, Final residual = 9.60145e-06, No Iterations 3
smoothSolver:  Solving for k, Initial residual = 0.00024954, Final residual = 1.51929e-05, No Iterations 4
ExecutionTime = 10.27 s  ClockTime = 11 s

Time = 283

smoothSolver:  Solving for Ux, Initial residual = 0.000137371, Final residual = 1.34282e-05, No Iterations 5
smoothSolver:  Solving for Uy, Initial residual = 0.00113079, Final residual = 7.43882e-05, No Iterations 6
GAMG:  Solving for p, Initial residual = 0.00169924, Final residual = 0.000168195, No Iterations 3
time step continuity errors : sum local = 0.00710707, global = -0.000688582, cumulative = 0.962722
smoothSolver:  Solving for epsilon, Initial residual = 0.000147219, Final residual = 9.42854e-06, No Iterations 3
smoothSolver:  Solving for k, Initial residual = 0.000242486, Final residual = 1.48073e-05, No Iterations 4
ExecutionTime = 10.3 s  ClockTime = 11 s

Time = 284

smoothSolver:  Solving for Ux, Initial residual = 0.000131868, Final residual = 1.30192e-05, No Iterations 5
smoothSolver:  Solving for Uy, Initial residual = 0.00107653, Final residual = 7.22337e-05, No Iterations 6
GAMG:  Solving for p, Initial residual = 0.00155689, Final residual = 0.000138727, No Iterations 4
time step continuity errors : sum local = 0.00585796, global = 0.000709986, cumulative = 0.963432
smoothSolver:  Solving for epsilon, Initial residual = 0.000143192, Final residual = 9.30434e-06, No Iterations 3
smoothSolver:  Solving for k, Initial residual = 0.000235432, Final residual = 1.44445e-05, No Iterations 4
ExecutionTime = 10.33 s  ClockTime = 11 s

Time = 285

smoothSolver:  Solving for Ux, Initial residual = 0.000126226, Final residual = 1.24773e-05, No Iterations 5
smoothSolver:  Solving for Uy, Initial residual = 0.00102297, Final residual = 6.95495e-05, No Iterations 6
GAMG:  Solving for p, Initial residual = 0.00143701, Final residual = 0.000112167, No Iterations 4
time step continuity errors : sum local = 0.00473195, global = 0.000551563, cumulative = 0.963983
smoothSolver:  Solving for epsilon, Initial residual = 0.000142151, Final residual = 9.26157e-06, No Iterations 3
smoothSolver:  Solving for k, Initial residual = 0.000230832, Final residual = 1.40486e-05, No Iterations 4
ExecutionTime = 10.36 s  ClockTime = 11 s

Time = 286

smoothSolver:  Solving for Ux, Initial residual = 0.000124117, Final residual = 1.22448e-05, No Iterations 5
smoothSolver:  Solving for Uy, Initial residual = 0.00103337, Final residual = 6.76245e-05, No Iterations 6
GAMG:  Solving for p, Initial residual = 0.00223454, Final residual = 0.000149245, No Iterations 3
time step continuity errors : sum local = 0.00629691, global = -0.000572658, cumulative = 0.963411
smoothSolver:  Solving for epsilon, Initial residual = 0.000140494, Final residual = 9.12851e-06, No Iterations 3
smoothSolver:  Solving for k, Initial residual = 0.000225218, Final residual = 1.37201e-05, No Iterations 4
ExecutionTime = 10.39 s  ClockTime = 11 s

Time = 287

smoothSolver:  Solving for Ux, Initial residual = 0.000120574, Final residual = 1.20288e-05, No Iterations 5
smoothSolver:  Solving for Uy, Initial residual = 0.000996384, Final residual = 6.48646e-05, No Iterations 6
GAMG:  Solving for p, Initial residual = 0.00148919, Final residual = 0.000144214, No Iterations 3
time step continuity errors : sum local = 0.00608744, global = -0.00066132, cumulative = 0.96275
smoothSolver:  Solving for epsilon, Initial residual = 0.00013876, Final residual = 9.05422e-06, No Iterations 3
smoothSolver:  Solving for k, Initial residual = 0.000219968, Final residual = 1.33693e-05, No Iterations 4
ExecutionTime = 10.43 s  ClockTime = 11 s


SIMPLE solution converged in 287 iterations

streamLine streamlines write:
    seeded 10 particles
    Tracks:10
    Total samples:11980
    Writing data to "/shared/lsfadmin/myOpenFoam_run_1523215655117LY1E1/pitzDaily/postProcessing/sets/streamlines/287"
End

